**
**ANSA_VERSION;23.0.0;
**
**
** file created by  A N S A  Mon Aug 14 13:39:01 2023
**
** output from :
**
** G:/Abaqus CAE/2_Course_Material/05_Linear_Static_Analysis/02_Beam_Bracket/Beam
** _Bracket.ansa
**
** Settings :
**
** Output format : 2019
**
** Output : All
**
*HEADING

**
**
**
*NODE
       1,                     -2.5,                     -30.,       -4.999999999999999
       2,                      2.5,                     -30.,       -5.000000000000001
       3,       -34.90772159293846,      -29.999999999999996,       3.2738605082587853
       4,                     -35.,      -29.999999999999996,                       0.
       5,       -28.59196653307484,      -29.999999999999996,        3.331966236293205
       6,        33.18853486525734,      -29.999999999999996,                       5.
       7,       -35.03123453712763,                     -30.,                       5.
       8,                     -40.,      -29.999999999999996,        5.000000000000001
       9,      -11.701056350382515,      -29.999999999999993,       1.6522172124610037
      10,       -36.47697877928971,                     -30.,       1.5941941018469166
      11,       19.261835745923005,       -29.99999999999999,       3.3331490211329964
      12,       -7.499999999999993,      -29.999999999999996,                       5.
      13,       29.142002565778853,       -29.99999999999999,        3.333445014132373
      14,       -32.83780209591198,                     -30.,                       0.
      15,        33.05750467735602,       -29.99999999999999,                       0.
      16,      -28.590424326693277,      -29.999999999999996,                       0.
      17,       29.123219650739614,       -29.99999999999999,                       0.
      18,        38.19633397448421,                     -30.,       1.1550748871326562
      19,      -37.326727230399406,                     -30.,                       5.
      20,        25.17141627335127,       -29.99999999999999,                       0.
** ... 5564 like lines cut
**
** SOLID ELEMENTS
**
*ELEMENT, TYPE=C3D8, ELSET=P29;Beam_Bracket
      63,        5,       22,       32,      143,      482,      497,      487,      480
      68,        7,        3,       95,       19,      517,      479,      524,      504
      72,       84,      110,       46,       33,      522,      535,      554,      557
      74,      133,       27,       12,       63,      564,      568,      573,      577
      77,      125,      138,      105,      102,      578,      579,      582,      589
      85,      106,      141,      140,      127,      592,      595,      597,      599
      87,       10,       50,        4,       72,      605,      609,      615,      616
      88,       95,        3,       50,       10,      524,      479,      609,      605
      89,      106,       40,      108,      128,      592,      617,      626,      629
      94,        5,       84,       33,       22,      482,      522,      557,      497
      95,        3,      110,      166,       50,      479,      535,      501,      609
      96,        3,        7,       46,      110,      479,      517,      554,      535
      98,       95,       10,      122,      116,      524,      605,      630,      633
     102,        8,       19,       95,      116,      627,      504,      524,      633
     111,      165,      166,      110,       84,      512,      501,      535,      522
     113,       14,      166,      165,       47,      636,      501,      512,      640
     118,      164,       16,       47,      165,      545,      645,      640,      512
     122,      143,      126,      164,        5,      480,      647,      545,      482
     125,      101,      142,      143,       32,      648,      490,      480,      487
     126,      141,      106,      128,      142,      595,      592,      629,      490
** ... 3932 like lines cut
*ELEMENT, TYPE=C3D6, ELSET=P29;Beam_Bracket
     162,       72,      122,       10,      616,      630,      605
     234,      152,      156,       18,     1076,     1029,     1019
     257,     3115,     3119,     2856,     1440,     2698,     3200
     279,      616,      630,      605,     1175,     1193,     1164
     351,     1076,     1029,     1019,     1481,     1393,      968
     396,     1175,     1193,     1164,     1512,      703,      961
     468,     1481,     1393,      968,     1648,     1632,     1630
     488,     2876,     2123,     1292,      660,     3270,     3269
     513,     1512,      703,      961,     1199,      670,      926
     585,     1648,     1632,     1630,     1911,     1885,     1480
     630,     1199,      670,      926,     1953,     1834,     1949
     631,     1440,     2698,     3200,     3302,     3306,     1821
     702,     1911,     1885,     1480,     2131,      634,     1130
     732,     2970,     1587,     2976,     1061,     3653,     3652
     747,     1953,     1834,     1949,     2167,      982,     2159
     806,     3287,     2285,     1677,     2970,     1587,     2976
     819,     2131,      634,     1130,     2305,     2296,     2094
     851,      660,     3270,     3269,     3386,     3375,     3374
     864,     2167,      982,     2159,     1622,     1620,     2354
     936,     2305,     2296,     2094,     2273,     1021,     2278
** ... 108 like lines cut
**
** 
**
**
** 
**
**
** SECTION DATA
**
*SOLID SECTION, ELSET=P29;Beam_Bracket, MATERIAL=M4;Steel
**
** MATERIALS
**
*MATERIAL, NAME=M4;Steel
*DENSITY
                 7.85E-9,
*ELASTIC, TYPE=ISOTROPIC
                 210000.,                      0.3
**
** 
**
**ANSA_COLOR;29;SOLID_SECTION;.521568655967712;.164705887436867;.866666674613953;
**1.;
**ANSA_COLOR;4;MATERIAL;.839215695858002;.796078443527222;.713725507259369;1.;
**ANSA_USER_ATTRIBUTES;SOLID_SECTION;User/cad_material;TEXT;RW;YES;;;
**ANSA_PART;PART;ID;1;MID;model1;NAME;model1;BELONGS_HERE;YES;STUDY_VERSION;0;PID
**_OFFSET;0;COLOR;201;236;118;0;IS_COLOR_ACTIVE;1;PART_TYPE;Undefined;CONTAINS;SO
**LID_SECTION;29;
