/batch
/config,noeldb,1     ! force off writing results to database
*get,_wallstrt,active,,time,wall
! ANSYS input file written by Workbench version 2022 R2
! File used for geometry attach: D:\Thesis\Amusement.iges
/title,wbnew--Static Structural (B5)
! ****** Begin Custom Load Command Snippet ******
/COM, ACT Extensions:
/COM,     LSDYNA, 2022.2
/COM,     5f463412-bd3e-484b-87e7-cbc0a665e474, wbex
/COM,/COM,     ANSYSMotion, 2022.2
/COM,     20180725-3f81-49eb-9f31-41364844c769, wbex
/COM,
! ****** End   Custom Load Command Snippet ******
*DIM,_wb_ProjectScratch_dir,string,248
_wb_ProjectScratch_dir(1) = 'C:\Users\mrroc\AppData\Local\Temp\WB_mrroc_12512_2\_ProjectScratch\Scr34FB\'
*DIM,_wb_SolverFiles_dir,string,248
_wb_SolverFiles_dir(1) = 'C:\Users\mrroc\AppData\Local\Temp\WB_mrroc_12512_2\wbnew_files\dp0\SYS-1\MECH\'
*DIM,_wb_userfiles_dir,string,248
_wb_userfiles_dir(1) = 'C:\Users\mrroc\AppData\Local\Temp\WB_mrroc_12512_2\wbnew_files\user_files\'
/com,--- Data in consistent MKS units. See Solving Units in the help system for more information.
/units,MKS
/nopr
/wb,file,start              !  signify a WB generated input file
/prep7
! Turn off shape checking because checks already performed inside WB mesher.
! See help system for more information.
SHPP,OFF,,NOWARN
/nolist
etcon,set             ! allow ANSYS to choose best KEYOP's for 180x elements, resets any applicable keyopt to MAPDL defaults
/com,*********** Nodes for the whole assembly ***********
nblock,3,,9924
(1i9,3e20.9e3)
        1     2.451334708E-01     9.372663525E-02     9.812550662E-02
        2     2.451334708E-01     7.486800423E-02     9.812550662E-02
        3     2.451334708E-01     5.600937321E-02     9.812550662E-02
        4     2.451334708E-01     3.715074220E-02     9.812550662E-02
        5     2.451334708E-01     1.829211118E-02     9.812550662E-02
        6     2.451334708E-01    -5.665198371E-04     9.812550662E-02
        7     2.451334708E-01    -1.942515085E-02     9.812550662E-02
        8     2.451334708E-01    -3.828378187E-02     9.812550662E-02
        9     2.451334708E-01    -5.714241289E-02     9.812550662E-02
       10     2.451334708E-01    -7.600104390E-02     9.812550662E-02
       11     2.248710851E-01     9.372663525E-02     9.812550662E-02
       12     2.248710851E-01     7.486800423E-02     9.812550662E-02
       13     2.248710851E-01     5.600937321E-02     9.812550662E-02
       14     2.248710851E-01     3.715074220E-02     9.812550662E-02
       15     2.248710851E-01     1.829211118E-02     9.812550662E-02
       16     2.248710851E-01    -5.665198371E-04     9.812550662E-02
       17     2.248710851E-01    -1.942515085E-02     9.812550662E-02
       18     2.248710851E-01    -3.828378187E-02     9.812550662E-02
       19     2.248710851E-01    -5.714241289E-02     9.812550662E-02
       20     2.248710851E-01    -7.600104390E-02     9.812550662E-02
! ... 9003 like lines cut
/wb,elem,start            !  set before creation of elements
/com,*********** Elements for Body 1 "Component1" ***********
et,1,187
eblock,19,solid,,1181
(19i9)
        1        1        1        1        0        0        0        0       10        0      661     4125     4328     4151     4126     5271     5466     5266     5265
     5278     5275
        1        1        1        1        0        0        0        0       10        0      662     4125     4151     4274     4126     5266     5462     5267     5265
     5275     5276
        1        1        1        1        0        0        0        0       10        0      663     4086     4151     4126     4274     4981     5275     4979     4984
     5462     5276
        1        1        1        1        0        0        0        0       10        0      664     4125     4126     4274     4345     5265     5276     5267     5273
     5280     6009
        1        1        1        1        0        0        0        0       10        0      665     4125     4151     4279     4274     5266     5465     5269     5267
     5462     6008
        1        1        1        1        0        0        0        0       10        0      666     4085     4125     4151     4279     4973     5266     4975     4977
     5269     5465
        1        1        1        1        0        0        0        0       10        0      667     4086     4274     4126     4127     4984     5276     4979     4980
     5285     5274
        1        1        1        1        0        0        0        0       10        0      668     4125     4274     4279     4345     5267     6008     5269     5273
     6009     6040
        1        1        1        1        0        0        0        0       10        0      669     4126     4127     4274     4345     5274     5285     5276     5280
     5288     6009
        1        1        1        1        0        0        0        0       10        0      670     4085     4125     4279     4124     4973     5269     4977     4972
     5256     5259
! ... 2343 like lines cut
!Material Id = {6DCBEECD-1660-464B-BA11-49E9DB45D438}
/com,*********** Elements for Body 2 "Component2" ***********
et,2,186
keyo,2,2,1          ! set full integration on SOLID186
eblock,19,solid,,187
(19i9)
        2        2        2        2        0        0        0        0       20        0        1      160      432      422      406      161      321      347      346
      938     1443     1428      937      941     1286     1337      942      936     1287     1339     1338
        2        2        2        2        0        0        0        0       20        0        2      150      160      406      407      171      161      346      345
      905      937     1427      907      940      942     1335      972      906      936     1338     1336
        2        2        2        2        0        0        0        0       20        0        3      140      150      407      408      181      171      345      344
      874      907     1429      876      971      972     1333      993      875      906     1336     1334
        2        2        2        2        0        0        0        0       20        0        4      130      140      408      409      191      181      344      343
      843      876     1430      845      992      993     1331     1014      844      875     1334     1332
        2        2        2        2        0        0        0        0       20        0        5      120      130      409      410      201      191      343      342
      812      845     1431      814     1013     1014     1329     1035      813      844     1332     1330
        2        2        2        2        0        0        0        0       20        0        6      110      120      410      411      211      201      342      341
      781      814     1432      783     1034     1035     1327     1056      782      813     1330     1328
        2        2        2        2        0        0        0        0       20        0        7      100      110      411      412      221      211      341      340
      750      783     1433      752     1055     1056     1325     1077      751      782     1328     1326
        2        2        2        2        0        0        0        0       20        0        8       90      100      412      413      231      221      340      339
      719      752     1434      721     1076     1077     1323     1098      720      751     1326     1324
        2        2        2        2        0        0        0        0       20        0        9       80       90      413      414      241      231      339      338
      688      721     1435      690     1097     1098     1321     1119      689      720     1324     1322
        2        2        2        2        0        0        0        0       20        0       10       70       80      414      415      251      241      338      337
      657      690     1436      659     1118     1119     1319     1140      658      689     1322     1320
! ... 355 like lines cut
!Material Id = {D7D9ACA5-67E7-427B-8838-9375CCD33BD2}
/com,*********** Elements for Body 3 "Component3" ***********
et,3,187
eblock,19,solid,,1310
(19i9)
        3        3        3        3        0        0        0        0       10        0     1842     6679     6744     6705     6692     8606     8767     8603     8601
     8697     8695
        3        3        3        3        0        0        0        0       10        0     1843     6692     6705     6693     6744     8695     8700     8694     8697
     8767     8701
        3        3        3        3        0        0        0        0       10        0     1844     6679     6744     6692     6743     8606     8697     8601     8605
     8914     8696
        3        3        3        3        0        0        0        0       10        0     1845     6679     6705     6744     6724     8603     8767     8606     8604
     8765     8846
        3        3        3        3        0        0        0        0       10        0     1846     6527     6693     6744     6692     7766     8701     7770     7765
     8694     8697
        3        3        3        3        0        0        0        0       10        0     1847     6693     6744     6705     6746     8701     8767     8700     8702
     8918     8768
        3        3        3        3        0        0        0        0       10        0     1848     6679     6692     6683     6743     8601     8630     8598     8605
     8696     8635
        3        3        3        3        0        0        0        0       10        0     1849     6679     6744     6743     6724     8606     8914     8605     8604
     8846     8845
        3        3        3        3        0        0        0        0       10        0     1850     6679     6705     6724     6684     8603     8765     8604     8599
     8642     8643
        3        3        3        3        0        0        0        0       10        0     1851     6526     6692     6527     6744     7757     7765     7755     7761
     8697     7770
! ... 2601 like lines cut
!Material Id = {6E6B7C5B-F5E7-4E9E-947D-B69AD0460163}
/com,*********** Elements for Body 4 "Component4" ***********
et,4,186
keyo,4,2,1          ! set full integration on SOLID186
eblock,19,solid,,473
(19i9)
        4        4        4        4        0        0        0        0       20        0      188     1453     1456     1460     1459     1796     1793     1789     1790
     2158     2171     2184     2159     3268     3259     3257     3262     2161     2173     2189     2186
        4        4        4        4        0        0        0        0       20        0      189     1453     1459     1460     1456     1461     1467     1468     1464
     2159     2184     2171     2158     2193     2212     2202     2192     2160     2185     2188     2172
        4        4        4        4        0        0        0        0       20        0      190     1461     1467     1468     1464     1469     1475     1476     1472
     2193     2212     2202     2192     2219     2238     2228     2218     2194     2213     2215     2203
        4        4        4        4        0        0        0        0       20        0      191     1469     1475     1476     1472     1477     1483     1484     1480
     2219     2238     2228     2218     2245     2264     2254     2244     2220     2239     2241     2229
        4        4        4        4        0        0        0        0       20        0      192     1477     1483     1484     1480     1485     1491     1492     1488
     2245     2264     2254     2244     2271     2290     2280     2270     2246     2265     2267     2255
        4        4        4        4        0        0        0        0       20        0      193     1485     1491     1492     1488     1493     1499     1500     1496
     2271     2290     2280     2270     2297     2316     2306     2296     2272     2291     2293     2281
        4        4        4        4        0        0        0        0       20        0      194     1493     1499     1500     1496     1501     1507     1508     1504
     2297     2316     2306     2296     2323     2342     2332     2322     2298     2317     2319     2307
        4        4        4        4        0        0        0        0       20        0      195     1501     1507     1508     1504     1509     1515     1516     1512
     2323     2342     2332     2322     2349     2368     2358     2348     2324     2343     2345     2333
        4        4        4        4        0        0        0        0       20        0      196     1509     1515     1516     1512     1517     1523     1524     1520
     2349     2368     2358     2348     2375     2394     2384     2374     2350     2369     2371     2359
        4        4        4        4        0        0        0        0       20        0      197     1517     1523     1524     1520     1525     1531     1532     1528
     2375     2394     2384     2374     2401     2420     2410     2400     2376     2395     2397     2385
! ... 927 like lines cut
!Material Id = {DB1DDE4C-336B-4B93-BB9B-36B341EAA235}
/wb,elem,end               !  done creating elements
/com,*********** Send User Defined Coordinate System(s) ***********
csys,0
toffst,273.15,  ! Temperature offset from absolute zero
/com,*********** Set Reference Temperature ***********
tref,22.
/wb,mat,start              !  starting to send materials
/com,*********** Send Materials ***********
Temperature = 'TEMP' ! Temperature
MP,DENS,1,7850,	! kg m^-3
MP,ALPX,1,1.2e-05,	! C^-1
MP,C,1,434,	! J kg^-1 C^-1
MP,KXX,1,60.5,	! W m^-1 C^-1
MP,RSVX,1,1.7e-07,	! kg m^3 A^-2 s^-3
MP,EX,1,200000000000,	! Pa
MP,NUXY,1,0.3,
MP,MURX,1,10000,
MP,UVID,1,bebbc936-28d1-47f2-a763-392deb7d2b14
MP,UMID,1,59002a79-71c2-428e-906b-55d7dbee100e

Temperature = 'TEMP' ! Temperature
MP,DENS,2,7850,	! kg m^-3
MP,ALPX,2,1.2e-05,	! C^-1
MP,C,2,434,	! J kg^-1 C^-1
MP,KXX,2,60.5,	! W m^-1 C^-1
MP,RSVX,2,1.7e-07,	! kg m^3 A^-2 s^-3
MP,EX,2,200000000000,	! Pa
MP,NUXY,2,0.3,
MP,MURX,2,10000,
MP,UVID,2,bebbc936-28d1-47f2-a763-392deb7d2b14
MP,UMID,2,59002a79-71c2-428e-906b-55d7dbee100e

Temperature = 'TEMP' ! Temperature
MP,DENS,3,7850,	! kg m^-3
MP,ALPX,3,1.2e-05,	! C^-1
MP,C,3,434,	! J kg^-1 C^-1
MP,KXX,3,60.5,	! W m^-1 C^-1
MP,RSVX,3,1.7e-07,	! kg m^3 A^-2 s^-3
MP,EX,3,200000000000,	! Pa
MP,NUXY,3,0.3,
MP,MURX,3,10000,
MP,UVID,3,bebbc936-28d1-47f2-a763-392deb7d2b14
MP,UMID,3,59002a79-71c2-428e-906b-55d7dbee100e

Temperature = 'TEMP' ! Temperature
MP,DENS,4,7850,	! kg m^-3
MP,ALPX,4,1.2e-05,	! C^-1
MP,C,4,434,	! J kg^-1 C^-1
MP,KXX,4,60.5,	! W m^-1 C^-1
MP,RSVX,4,1.7e-07,	! kg m^3 A^-2 s^-3
MP,EX,4,200000000000,	! Pa
MP,NUXY,4,0.3,
MP,MURX,4,10000,
MP,UVID,4,bebbc936-28d1-47f2-a763-392deb7d2b14
MP,UMID,4,59002a79-71c2-428e-906b-55d7dbee100e

/wb,mat,end                !  done sending materials
!************************* Model Summary ********************
!Component1,	Structural Steel,	matid,	1
!Component2,	Structural Steel,	matid,	2
!Component3,	Structural Steel,	matid,	3
!Component4,	Structural Steel,	matid,	4
!************************* End Model Summary ********************
! get the diagonal of the bounding box. Needed later for other things
*get,_xmin,node,,mnloc,x
*get,_ymin,node,,mnloc,y
*get,_zmin,node,,mnloc,z
*get,_xmax,node,,mxloc,x
*get,_ymax,node,,mxloc,y
*get,_zmax,node,,mxloc,z
_ASMDIAG=(_xmax-_xmin)*(_xmax-_xmin)+(_ymax-_ymin)*(_ymax-_ymin)+(_zmax-_zmin)*(_zmax-_zmin)
_ASMDIAG=SQRT(_ASMDIAG)
/wb,contact,start          !  starting to send contact
/com,*********** Create Contact "Contact Region" ***********
/com,            Real Constant Set For Above Contact Is 6 & 5 
*set,tid,6
*set,cid,5
r,tid
r,cid
et,tid,170
et,cid,174
eblock,10,,,64
(15i9)
     5632        6        6        6        0     4045     4046     4311     4311     4711     4721     4311     4715
     5633        6        6        6        0     4044     4045     4311     4311     4705     4715     4311     4709
     5634        6        6        6        0     4043     4391     4051     4051     4704     4745     4051     4700
     5635        6        6        6        0     4044     4311     4387     4387     4709     6216     4387     4710
     5636        6        6        6        0     4047     4048     4312     4312     4723     4730     4312     4726
     5637        6        6        6        0     4051     4116     4050     4050     4743     4738     4050     4735
     5638        6        6        6        0     4049     4050     4336     4336     4732     4740     4336     4734
     5639        6        6        6        0     4050     4315     4336     4336     4739     6227     4336     4740
     5640        6        6        6        0     4048     4049     4336     4336     4727     4734     4336     4731
     5641        6        6        6        0     4048     4336     4312     4312     4731     6218     4312     4730
     5642        6        6        6        0     4391     4116     4051     4051     5196     4743     4051     4745
     5643        6        6        6        0     4043     4044     4387     4387     4699     4710     4387     4703
     5644        6        6        6        0     4046     4312     4311     4311     4722     6213     4311     4721
     5645        6        6        6        0     4046     4047     4312     4312     4716     4726     4312     4722
     5646        6        6        6        0     4050     4116     4315     4315     4738     5193     4315     4739
     5647        6        6        6        0     4043     4387     4391     4391     4703     6376     4391     4704
     5648        6        6        6        0     4043     4051     4074     4074     4700     4741     4074     4701
     5649        6        6        6        0     4047     4077     4048     4048     4724     4729     4048     4723
     5650        6        6        6        0     4048     4077     4076     4076     4729     4913     4076     4728
     5651        6        6        6        0     4048     4076     4049     4049     4728     4733     4049     4727
! ... 45 like lines cut
eblock,10,,,64
(15i9)
     5696        5        5        5        0     4045     4046     4311     4311     4711     4721     4311     4715
     5697        5        5        5        0     4044     4045     4311     4311     4705     4715     4311     4709
     5698        5        5        5        0     4043     4391     4051     4051     4704     4745     4051     4700
     5699        5        5        5        0     4044     4311     4387     4387     4709     6216     4387     4710
     5700        5        5        5        0     4047     4048     4312     4312     4723     4730     4312     4726
     5701        5        5        5        0     4051     4116     4050     4050     4743     4738     4050     4735
     5702        5        5        5        0     4049     4050     4336     4336     4732     4740     4336     4734
     5703        5        5        5        0     4050     4315     4336     4336     4739     6227     4336     4740
     5704        5        5        5        0     4048     4049     4336     4336     4727     4734     4336     4731
     5705        5        5        5        0     4048     4336     4312     4312     4731     6218     4312     4730
     5706        5        5        5        0     4391     4116     4051     4051     5196     4743     4051     4745
     5707        5        5        5        0     4043     4044     4387     4387     4699     4710     4387     4703
     5708        5        5        5        0     4046     4312     4311     4311     4722     6213     4311     4721
     5709        5        5        5        0     4046     4047     4312     4312     4716     4726     4312     4722
     5710        5        5        5        0     4050     4116     4315     4315     4738     5193     4315     4739
     5711        5        5        5        0     4043     4387     4391     4391     4703     6376     4391     4704
     5712        5        5        5        0     4043     4051     4074     4074     4700     4741     4074     4701
     5713        5        5        5        0     4047     4077     4048     4048     4724     4729     4048     4723
     5714        5        5        5        0     4048     4077     4076     4076     4729     4913     4076     4728
     5715        5        5        5        0     4048     4076     4049     4049     4728     4733     4049     4727
! ... 45 like lines cut
eblock,10,,,8
(15i9)
     5760        5        6        5        0      139      129      130      140      841      840      843      871
     5761        5        6        5        0      129      119      120      130      810      809      812      840
     5762        5        6        5        0      138      128      129      139      838      837      841      868
     5763        5        6        5        0      128      118      119      129      807      806      810      837
     5764        5        6        5        0      133      123      124      134      823      822      826      853
     5765        5        6        5        0      123      113      114      124      792      791      795      822
     5766        5        6        5        0      132      122      123      133      820      819      823      850
     5767        5        6        5        0      122      112      113      123      789      788      792      819
-1
eblock,10,,,8
(15i9)
     5768        6        5        6        0      139      129      130      140      841      840      843      871
     5769        6        5        6        0      129      119      120      130      810      809      812      840
     5770        6        5        6        0      138      128      129      139      838      837      841      868
     5771        6        5        6        0      128      118      119      129      807      806      810      837
     5772        6        5        6        0      133      123      124      134      823      822      826      853
     5773        6        5        6        0      123      113      114      124      792      791      795      822
     5774        6        5        6        0      132      122      123      133      820      819      823      850
     5775        6        5        6        0      122      112      113      123      789      788      792      819
-1
keyo,cid,8,2               ! auto create asymmetric contact (from Program Controlled setting)
keyo,cid,10,0              ! adjust contact stiffness each NR iteration (from Program Controlled setting)
keyo,cid,12,5              ! bonded always
keyo,cid,18,1              ! small sliding turned on by application
keyo,cid,2,0               ! augmented Lagrange (from Program Controlled setting)
keyo,cid,4,0               ! on Gauss point (from Program Controlled setting)
keyo,cid,9,1               ! ignore initial gaps/penetration
keyo,cid,7,0               ! No Prediction
rmod,tid,3,10.      ! FKN
rmod,tid,5,0.       ! ICONT
rmod,tid,6,0.       ! PINB
rmod,tid,10,0.      ! CNOF
rmod,tid,12,0.      ! FKT
rmod,tid,36,35      ! WB DSID
rmod,cid,3,10.      ! FKN
rmod,cid,5,0.       ! ICONT
rmod,cid,6,0.       ! PINB
rmod,cid,10,0.      ! CNOF
rmod,cid,12,0.      ! FKT
rmod,cid,36,35      ! WB DSID
/com,*********** Create Contact "No Separation - Component1 To Component4" ***********
/com,            Real Constant Set For Above Contact Is 8 & 7 
*set,tid,8
*set,cid,7
r,tid
r,cid
et,tid,170
et,cid,174
eblock,10,,,20
(15i9)
     5776        8        8        8        0     3991     4008     3992     3992     4408     4414     3992     4406
     5777        8        8        8        0     3992     4008     4007     4007     4414     4483     4007     4413
     5778        8        8        8        0     3989     4000     3991     3991     4394     4407     3991     4392
     5779        8        8        8        0     3990     3997     4002     4002     4398     4443     4002     4402
     5780        8        8        8        0     3993     4007     4006     4006     4422     4479     4006     4421
     5781        8        8        8        0     3991     4000     4008     4008     4407     4459     4008     4408
     5782        8        8        8        0     3993     4006     4005     4005     4421     4477     4005     4420
     5783        8        8        8        0     3995     4004     3996     3996     4433     4439     3996     4432
     5784        8        8        8        0     3990     4002     3999     3999     4402     4456     3999     4400
     5785        8        8        8        0     3993     4005     3994     3994     4420     4428     3994     4419
     5786        8        8        8        0     3994     4004     3995     3995     4427     4433     3995     4426
     5787        8        8        8        0     3996     4003     3997     3997     4438     4444     3997     4437
     5788        8        8        8        0     3994     4005     4004     4004     4428     4473     4004     4427
     5789        8        8        8        0     3992     4007     3993     3993     4413     4422     3993     4412
     5790        8        8        8        0     3996     4004     4003     4003     4439     4471     4003     4438
     5791        8        8        8        0     3997     4003     4002     4002     4444     4466     4002     4443
     5792        8        8        8        0     3998     4001     4000     4000     4451     4458     4000     4450
     5793        8        8        8        0     3990     3999     4001     4001     4400     4455     4001     4401
     5794        8        8        8        0     3990     4001     3998     3998     4401     4451     3998     4399
     5795        8        8        8        0     3989     3998     4000     4000     4393     4450     4000     4394
-1
eblock,10,,,20
(15i9)
     5796        7        7        7        0     3991     4008     3992     3992     4408     4414     3992     4406
     5797        7        7        7        0     3992     4008     4007     4007     4414     4483     4007     4413
     5798        7        7        7        0     3989     4000     3991     3991     4394     4407     3991     4392
     5799        7        7        7        0     3990     3997     4002     4002     4398     4443     4002     4402
     5800        7        7        7        0     3993     4007     4006     4006     4422     4479     4006     4421
     5801        7        7        7        0     3991     4000     4008     4008     4407     4459     4008     4408
     5802        7        7        7        0     3993     4006     4005     4005     4421     4477     4005     4420
     5803        7        7        7        0     3995     4004     3996     3996     4433     4439     3996     4432
     5804        7        7        7        0     3990     4002     3999     3999     4402     4456     3999     4400
     5805        7        7        7        0     3993     4005     3994     3994     4420     4428     3994     4419
     5806        7        7        7        0     3994     4004     3995     3995     4427     4433     3995     4426
     5807        7        7        7        0     3996     4003     3997     3997     4438     4444     3997     4437
     5808        7        7        7        0     3994     4005     4004     4004     4428     4473     4004     4427
     5809        7        7        7        0     3992     4007     3993     3993     4413     4422     3993     4412
     5810        7        7        7        0     3996     4004     4003     4003     4439     4471     4003     4438
     5811        7        7        7        0     3997     4003     4002     4002     4444     4466     4002     4443
     5812        7        7        7        0     3998     4001     4000     4000     4451     4458     4000     4450
     5813        7        7        7        0     3990     3999     4001     4001     4400     4455     4001     4401
     5814        7        7        7        0     3990     4001     3998     3998     4401     4451     3998     4399
     5815        7        7        7        0     3989     3998     4000     4000     4393     4450     4000     4394
-1
eblock,10,,,24
(15i9)
     5816        7        8        7        0     2086     2079     2118     2117     3887     3888     3950     3903
     5817        7        8        7        0     2093     2086     2117     2116     3902     3903     3949     3918
     5818        7        8        7        0     2100     2093     2116     2115     3917     3918     3948     3932
     5819        7        8        7        0     2086     2087     2080     2079     3901     3890     3886     3887
     5820        7        8        7        0     2093     2094     2087     2086     3916     3905     3901     3902
     5821        7        8        7        0     2100     2101     2094     2093     3931     3920     3916     3917
     5822        7        8        7        0     2087     2088     2081     2080     3904     3892     3889     3890
     5823        7        8        7        0     2094     2095     2088     2087     3919     3907     3904     3905
     5824        7        8        7        0     2101     2102     2095     2094     3933     3922     3919     3920
     5825        7        8        7        0     2088     2089     2082     2081     3906     3894     3891     3892
     5826        7        8        7        0     2095     2096     2089     2088     3921     3909     3906     3907
     5827        7        8        7        0     2102     2103     2096     2095     3934     3924     3921     3922
     5828        7        8        7        0     2089     2090     2083     2082     3908     3896     3893     3894
     5829        7        8        7        0     2096     2097     2090     2089     3923     3911     3908     3909
     5830        7        8        7        0     2103     2104     2097     2096     3935     3926     3923     3924
     5831        7        8        7        0     2090     2091     2084     2083     3910     3898     3895     3896
     5832        7        8        7        0     2097     2098     2091     2090     3925     3913     3910     3911
     5833        7        8        7        0     2104     2105     2098     2097     3936     3928     3925     3926
     5834        7        8        7        0     2091     2092     2085     2084     3912     3899     3897     3898
     5835        7        8        7        0     2098     2099     2092     2091     3927     3914     3912     3913
! ... 5 like lines cut
eblock,10,,,24
(15i9)
     5840        8        7        8        0     2086     2079     2118     2117     3887     3888     3950     3903
     5841        8        7        8        0     2093     2086     2117     2116     3902     3903     3949     3918
     5842        8        7        8        0     2100     2093     2116     2115     3917     3918     3948     3932
     5843        8        7        8        0     2086     2087     2080     2079     3901     3890     3886     3887
     5844        8        7        8        0     2093     2094     2087     2086     3916     3905     3901     3902
     5845        8        7        8        0     2100     2101     2094     2093     3931     3920     3916     3917
     5846        8        7        8        0     2087     2088     2081     2080     3904     3892     3889     3890
     5847        8        7        8        0     2094     2095     2088     2087     3919     3907     3904     3905
     5848        8        7        8        0     2101     2102     2095     2094     3933     3922     3919     3920
     5849        8        7        8        0     2088     2089     2082     2081     3906     3894     3891     3892
     5850        8        7        8        0     2095     2096     2089     2088     3921     3909     3906     3907
     5851        8        7        8        0     2102     2103     2096     2095     3934     3924     3921     3922
     5852        8        7        8        0     2089     2090     2083     2082     3908     3896     3893     3894
     5853        8        7        8        0     2096     2097     2090     2089     3923     3911     3908     3909
     5854        8        7        8        0     2103     2104     2097     2096     3935     3926     3923     3924
     5855        8        7        8        0     2090     2091     2084     2083     3910     3898     3895     3896
     5856        8        7        8        0     2097     2098     2091     2090     3925     3913     3910     3911
     5857        8        7        8        0     2104     2105     2098     2097     3936     3928     3925     3926
     5858        8        7        8        0     2091     2092     2085     2084     3912     3899     3897     3898
     5859        8        7        8        0     2098     2099     2092     2091     3927     3914     3912     3913
! ... 5 like lines cut
keyo,cid,8,2               ! auto create asymmetric contact (from Program Controlled setting)
keyo,cid,10,0              ! adjust contact stiffness each NR iteration (from Program Controlled setting)
keyo,cid,12,4              ! no separation always
keyo,cid,18,1              ! small sliding turned on by application
keyo,cid,2,0               ! augmented Lagrange (from Program Controlled setting)
keyo,cid,4,0               ! on Gauss point (from Program Controlled setting)
keyo,cid,9,1               ! ignore initial gaps/penetration
keyo,cid,7,0               ! No Prediction
rmod,tid,3,10.      ! FKN
rmod,tid,5,0.       ! ICONT
rmod,tid,6,0.       ! PINB
rmod,tid,10,0.      ! CNOF
rmod,tid,12,0.      ! FKT
rmod,tid,36,38      ! WB DSID
rmod,cid,3,10.      ! FKN
rmod,cid,5,0.       ! ICONT
rmod,cid,6,0.       ! PINB
rmod,cid,10,0.      ! CNOF
rmod,cid,12,0.      ! FKT
rmod,cid,36,38      ! WB DSID
/com,*********** Create Contact "Contact Region 3" ***********
/com,            Real Constant Set For Above Contact Is 10 & 9 
*set,tid,10
*set,cid,9
r,tid
r,cid
et,tid,170
et,cid,174
eblock,10,,,8
(15i9)
     5864       10       10       10        0       49       39       40       50      562      561      564      592
     5865       10       10       10        0       39       29       30       40      531      530      533      561
     5866       10       10       10        0       48       38       39       49      559      558      562      589
     5867       10       10       10        0       38       28       29       39      528      527      531      558
     5868       10       10       10        0       43       33       34       44      544      543      547      574
     5869       10       10       10        0       33       23       24       34      513      512      516      543
     5870       10       10       10        0       42       32       33       43      541      540      544      571
     5871       10       10       10        0       32       22       23       33      510      509      513      540
-1
eblock,10,,,8
(15i9)
     5872        9        9        9        0       49       39       40       50      562      561      564      592
     5873        9        9        9        0       39       29       30       40      531      530      533      561
     5874        9        9        9        0       48       38       39       49      559      558      562      589
     5875        9        9        9        0       38       28       29       39      528      527      531      558
     5876        9        9        9        0       43       33       34       44      544      543      547      574
     5877        9        9        9        0       33       23       24       34      513      512      516      543
     5878        9        9        9        0       42       32       33       43      541      540      544      571
     5879        9        9        9        0       32       22       23       33      510      509      513      540
-1
eblock,10,,,64
(15i9)
     5880        9       10        9        0     6445     6454     6519     6519     7191     7238     6519     7193
     5881        9       10        9        0     6448     6714     6449     6449     7211     7216     6449     7208
     5882        9       10        9        0     6447     6714     6448     6448     7207     7211     6448     7203
     5883        9       10        9        0     6446     6714     6447     6447     7201     7207     6447     7197
     5884        9       10        9        0     6445     6714     6446     6446     7195     7201     6446     7190
     5885        9       10        9        0     6445     6519     6714     6714     7193     7693     6714     7195
     5886        9       10        9        0     6450     6715     6451     6451     7222     7226     6451     7219
     5887        9       10        9        0     6449     6714     6715     6715     7216     8798     6715     7217
     5888        9       10        9        0     6449     6715     6450     6450     7217     7222     6450     7212
     5889        9       10        9        0     6453     6718     6454     6454     7234     7240     6454     7231
     5890        9       10        9        0     6454     6718     6519     6519     7240     7694     6519     7238
     5891        9       10        9        0     6452     6737     6453     6453     7230     7235     6453     7228
     5892        9       10        9        0     6453     6737     6718     6718     7235     8812     6718     7234
     5893        9       10        9        0     6451     6715     6737     6737     7226     8803     6737     7227
     5894        9       10        9        0     6451     6737     6452     6452     7227     7230     6452     7223
     5895        9       10        9        0     6447     6482     6483     6483     7204     7417     6483     7205
     5896        9       10        9        0     6450     6451     6480     6480     7219     7225     6480     7220
     5897        9       10        9        0     6446     6483     6477     6477     7199     7392     6477     7198
     5898        9       10        9        0     6450     6480     6481     6481     7220     7407     6481     7221
     5899        9       10        9        0     6451     6452     6479     6479     7223     7229     6479     7224
! ... 45 like lines cut
eblock,10,,,64
(15i9)
     5944       10        9       10        0     6445     6454     6519     6519     7191     7238     6519     7193
     5945       10        9       10        0     6448     6714     6449     6449     7211     7216     6449     7208
     5946       10        9       10        0     6447     6714     6448     6448     7207     7211     6448     7203
     5947       10        9       10        0     6446     6714     6447     6447     7201     7207     6447     7197
     5948       10        9       10        0     6445     6714     6446     6446     7195     7201     6446     7190
     5949       10        9       10        0     6445     6519     6714     6714     7193     7693     6714     7195
     5950       10        9       10        0     6450     6715     6451     6451     7222     7226     6451     7219
     5951       10        9       10        0     6449     6714     6715     6715     7216     8798     6715     7217
     5952       10        9       10        0     6449     6715     6450     6450     7217     7222     6450     7212
     5953       10        9       10        0     6453     6718     6454     6454     7234     7240     6454     7231
     5954       10        9       10        0     6454     6718     6519     6519     7240     7694     6519     7238
     5955       10        9       10        0     6452     6737     6453     6453     7230     7235     6453     7228
     5956       10        9       10        0     6453     6737     6718     6718     7235     8812     6718     7234
     5957       10        9       10        0     6451     6715     6737     6737     7226     8803     6737     7227
     5958       10        9       10        0     6451     6737     6452     6452     7227     7230     6452     7223
     5959       10        9       10        0     6447     6482     6483     6483     7204     7417     6483     7205
     5960       10        9       10        0     6450     6451     6480     6480     7219     7225     6480     7220
     5961       10        9       10        0     6446     6483     6477     6477     7199     7392     6477     7198
     5962       10        9       10        0     6450     6480     6481     6481     7220     7407     6481     7221
     5963       10        9       10        0     6451     6452     6479     6479     7223     7229     6479     7224
! ... 45 like lines cut
keyo,cid,8,2               ! auto create asymmetric contact (from Program Controlled setting)
keyo,cid,10,0              ! adjust contact stiffness each NR iteration (from Program Controlled setting)
keyo,cid,12,5              ! bonded always
keyo,cid,18,1              ! small sliding turned on by application
keyo,cid,2,0               ! augmented Lagrange (from Program Controlled setting)
keyo,cid,4,0               ! on Gauss point (from Program Controlled setting)
keyo,cid,9,1               ! ignore initial gaps/penetration
keyo,cid,7,0               ! No Prediction
rmod,tid,3,10.      ! FKN
rmod,tid,5,0.       ! ICONT
rmod,tid,6,0.       ! PINB
rmod,tid,10,0.      ! CNOF
rmod,tid,12,0.      ! FKT
rmod,tid,36,41      ! WB DSID
rmod,cid,3,10.      ! FKN
rmod,cid,5,0.       ! ICONT
rmod,cid,6,0.       ! PINB
rmod,cid,10,0.      ! CNOF
rmod,cid,12,0.      ! FKT
rmod,cid,36,41      ! WB DSID
/com,*********** Create Contact "No Separation - Component3 To Component4" ***********
/com,            Real Constant Set For Above Contact Is 12 & 11 
*set,tid,12
*set,cid,11
r,tid
r,cid
et,tid,170
et,cid,174
eblock,10,,,36
(15i9)
     6008       12       12       12        0     6384     6391     6385     6385     6865     6872     6385     6864
     6009       12       12       12        0     6383     6391     6384     6384     6861     6865     6384     6860
     6010       12       12       12        0     6377     6396     6379     6379     6828     6836     6379     6824
     6011       12       12       12        0     6385     6391     6390     6390     6872     6895     6390     6871
     6012       12       12       12        0     6382     6392     6383     6383     6855     6862     6383     6854
     6013       12       12       12        0     6382     6393     6392     6392     6856     6903     6392     6855
     6014       12       12       12        0     6382     6394     6393     6393     6857     6907     6393     6856
     6015       12       12       12        0     6378     6379     6387     6387     6831     6835     6387     6833
     6016       12       12       12        0     6377     6386     6389     6389     6825     6876     6389     6827
     6017       12       12       12        0     6381     6395     6394     6394     6852     6912     6394     6851
     6018       12       12       12        0     6385     6390     6386     6386     6871     6877     6386     6870
     6019       12       12       12        0     6383     6392     6391     6391     6862     6899     6391     6861
     6020       12       12       12        0     6386     6390     6389     6389     6877     6889     6389     6876
     6021       12       12       12        0     6377     6389     6388     6388     6827     6884     6388     6826
     6022       12       12       12        0     6379     6396     6387     6387     6836     6880     6387     6835
     6023       12       12       12        0     6377     6388     6396     6396     6826     6885     6396     6828
     6024       12       12       12        0     6380     6387     6395     6395     6843     6879     6395     6844
     6025       12       12       12        0     6381     6394     6382     6382     6851     6857     6382     6850
     6026       12       12       12        0     6380     6395     6381     6381     6844     6852     6381     6842
     6027       12       12       12        0     6378     6387     6380     6380     6833     6843     6380     6832
! ... 17 like lines cut
eblock,10,,,36
(15i9)
     6044       11       11       11        0     6384     6391     6385     6385     6865     6872     6385     6864
     6045       11       11       11        0     6383     6391     6384     6384     6861     6865     6384     6860
     6046       11       11       11        0     6377     6396     6379     6379     6828     6836     6379     6824
     6047       11       11       11        0     6385     6391     6390     6390     6872     6895     6390     6871
     6048       11       11       11        0     6382     6392     6383     6383     6855     6862     6383     6854
     6049       11       11       11        0     6382     6393     6392     6392     6856     6903     6392     6855
     6050       11       11       11        0     6382     6394     6393     6393     6857     6907     6393     6856
     6051       11       11       11        0     6378     6379     6387     6387     6831     6835     6387     6833
     6052       11       11       11        0     6377     6386     6389     6389     6825     6876     6389     6827
     6053       11       11       11        0     6381     6395     6394     6394     6852     6912     6394     6851
     6054       11       11       11        0     6385     6390     6386     6386     6871     6877     6386     6870
     6055       11       11       11        0     6383     6392     6391     6391     6862     6899     6391     6861
     6056       11       11       11        0     6386     6390     6389     6389     6877     6889     6389     6876
     6057       11       11       11        0     6377     6389     6388     6388     6827     6884     6388     6826
     6058       11       11       11        0     6379     6396     6387     6387     6836     6880     6387     6835
     6059       11       11       11        0     6377     6388     6396     6396     6826     6885     6396     6828
     6060       11       11       11        0     6380     6387     6395     6395     6843     6879     6395     6844
     6061       11       11       11        0     6381     6394     6382     6382     6851     6857     6382     6850
     6062       11       11       11        0     6380     6395     6381     6381     6844     6852     6381     6842
     6063       11       11       11        0     6378     6387     6380     6380     6833     6843     6380     6832
! ... 17 like lines cut
eblock,10,,,32
(15i9)
     6080       11       12       11        0     2107     2109     2156     1813     3939     3943     3312     3311
     6081       11       12       11        0     1820     1813     2156     2155     3310     3312     3988     3333
     6082       11       12       11        0     1827     1820     2155     2154     3332     3333     3987     3348
     6083       11       12       11        0     1834     1827     2154     2153     3347     3348     3986     3363
     6084       11       12       11        0     1813     1814     2114     2107     3309     3315     3940     3311
     6085       11       12       11        0     1820     1821     1814     1813     3331     3314     3309     3310
     6086       11       12       11        0     1827     1828     1821     1820     3346     3335     3331     3332
     6087       11       12       11        0     1834     1835     1828     1827     3361     3350     3346     3347
     6088       11       12       11        0     1814     1815     2113     2114     3313     3318     3947     3315
     6089       11       12       11        0     1821     1822     1815     1814     3334     3317     3313     3314
     6090       11       12       11        0     1828     1829     1822     1821     3349     3337     3334     3335
     6091       11       12       11        0     1835     1836     1829     1828     3364     3352     3349     3350
     6092       11       12       11        0     1815     1816     2112     2113     3316     3321     3946     3318
     6093       11       12       11        0     1822     1823     1816     1815     3336     3320     3316     3317
     6094       11       12       11        0     1829     1830     1823     1822     3351     3339     3336     3337
     6095       11       12       11        0     1836     1837     1830     1829     3366     3354     3351     3352
     6096       11       12       11        0     1816     1817     2111     2112     3319     3324     3945     3321
     6097       11       12       11        0     1823     1824     1817     1816     3338     3323     3319     3320
     6098       11       12       11        0     1830     1831     1824     1823     3353     3341     3338     3339
     6099       11       12       11        0     1837     1838     1831     1830     3368     3356     3353     3354
! ... 13 like lines cut
eblock,10,,,32
(15i9)
     6112       12       11       12        0     2107     2109     2156     1813     3939     3943     3312     3311
     6113       12       11       12        0     1820     1813     2156     2155     3310     3312     3988     3333
     6114       12       11       12        0     1827     1820     2155     2154     3332     3333     3987     3348
     6115       12       11       12        0     1834     1827     2154     2153     3347     3348     3986     3363
     6116       12       11       12        0     1813     1814     2114     2107     3309     3315     3940     3311
     6117       12       11       12        0     1820     1821     1814     1813     3331     3314     3309     3310
     6118       12       11       12        0     1827     1828     1821     1820     3346     3335     3331     3332
     6119       12       11       12        0     1834     1835     1828     1827     3361     3350     3346     3347
     6120       12       11       12        0     1814     1815     2113     2114     3313     3318     3947     3315
     6121       12       11       12        0     1821     1822     1815     1814     3334     3317     3313     3314
     6122       12       11       12        0     1828     1829     1822     1821     3349     3337     3334     3335
     6123       12       11       12        0     1835     1836     1829     1828     3364     3352     3349     3350
     6124       12       11       12        0     1815     1816     2112     2113     3316     3321     3946     3318
     6125       12       11       12        0     1822     1823     1816     1815     3336     3320     3316     3317
     6126       12       11       12        0     1829     1830     1823     1822     3351     3339     3336     3337
     6127       12       11       12        0     1836     1837     1830     1829     3366     3354     3351     3352
     6128       12       11       12        0     1816     1817     2111     2112     3319     3324     3945     3321
     6129       12       11       12        0     1823     1824     1817     1816     3338     3323     3319     3320
     6130       12       11       12        0     1830     1831     1824     1823     3353     3341     3338     3339
     6131       12       11       12        0     1837     1838     1831     1830     3368     3356     3353     3354
! ... 13 like lines cut
keyo,cid,8,2               ! auto create asymmetric contact (from Program Controlled setting)
keyo,cid,10,0              ! adjust contact stiffness each NR iteration (from Program Controlled setting)
keyo,cid,12,4              ! no separation always
keyo,cid,18,1              ! small sliding turned on by application
keyo,cid,2,0               ! augmented Lagrange (from Program Controlled setting)
keyo,cid,4,0               ! on Gauss point (from Program Controlled setting)
keyo,cid,9,1               ! ignore initial gaps/penetration
keyo,cid,7,0               ! No Prediction
rmod,tid,3,10.      ! FKN
rmod,tid,5,0.       ! ICONT
rmod,tid,6,0.       ! PINB
rmod,tid,10,0.      ! CNOF
rmod,tid,12,0.      ! FKT
rmod,tid,36,44      ! WB DSID
rmod,cid,3,10.      ! FKN
rmod,cid,5,0.       ! ICONT
rmod,cid,6,0.       ! PINB
rmod,cid,10,0.      ! CNOF
rmod,cid,12,0.      ! FKT
rmod,cid,36,44      ! WB DSID
nsel,all
esel,all
/wb,contact,end            !  done creating contacts
/golist
/wb,load,start             !  starting to send loads
/com,******* Constant Zero Displacement X *******
CMBLOCK,_DISPZEROUX,NODE,      618
(8i10)
       161       162       163       164       165       166       167       168
       169       170       171       172       173       174       175       176
       177       178       179       180       181       182       183       184
       185       186       187       188       189       190       191       192
       193       194       195       196       197       198       199       200
       201       202       203       204       205       206       207       208
       209       210       211       212       213       214       215       216
       217       218       219       220       221       222       223       224
       225       226       227       228       229       230       231       232
       233       234       235       236       237       238       239       240
       241       242       243       244       245       246       247       248
       249       250       251       252       253       254       255       256
       257       258       259       260       261       262       263       264
       265       266       267       268       269       270       271       272
       273       274       275       276       277       278       279       280
       281       282       283       284       285       286       287       288
       289       290       291       292       293       294       295       296
       297       298       299       300       301       302       303       304
       305       306       307       308       309       310       311       312
       313       314       315       316       317       318       319       320
! ... 58 like lines cut
cmsel,s,_DISPZEROUX
d,all,ux,0
nsel,all
/com,******* Constant Zero Displacement Y *******
CMBLOCK,_DISPZEROUY,NODE,      618
(8i10)
       161       162       163       164       165       166       167       168
       169       170       171       172       173       174       175       176
       177       178       179       180       181       182       183       184
       185       186       187       188       189       190       191       192
       193       194       195       196       197       198       199       200
       201       202       203       204       205       206       207       208
       209       210       211       212       213       214       215       216
       217       218       219       220       221       222       223       224
       225       226       227       228       229       230       231       232
       233       234       235       236       237       238       239       240
       241       242       243       244       245       246       247       248
       249       250       251       252       253       254       255       256
       257       258       259       260       261       262       263       264
       265       266       267       268       269       270       271       272
       273       274       275       276       277       278       279       280
       281       282       283       284       285       286       287       288
       289       290       291       292       293       294       295       296
       297       298       299       300       301       302       303       304
       305       306       307       308       309       310       311       312
       313       314       315       316       317       318       319       320
! ... 58 like lines cut
cmsel,s,_DISPZEROUY
d,all,uy,0
nsel,all
/com,******* Constant Zero Displacement Z *******
CMBLOCK,_DISPZEROUZ,NODE,      618
(8i10)
       161       162       163       164       165       166       167       168
       169       170       171       172       173       174       175       176
       177       178       179       180       181       182       183       184
       185       186       187       188       189       190       191       192
       193       194       195       196       197       198       199       200
       201       202       203       204       205       206       207       208
       209       210       211       212       213       214       215       216
       217       218       219       220       221       222       223       224
       225       226       227       228       229       230       231       232
       233       234       235       236       237       238       239       240
       241       242       243       244       245       246       247       248
       249       250       251       252       253       254       255       256
       257       258       259       260       261       262       263       264
       265       266       267       268       269       270       271       272
       273       274       275       276       277       278       279       280
       281       282       283       284       285       286       287       288
       289       290       291       292       293       294       295       296
       297       298       299       300       301       302       303       304
       305       306       307       308       309       310       311       312
       313       314       315       316       317       318       319       320
! ... 58 like lines cut
cmsel,s,_DISPZEROUZ
d,all,uz,0
nsel,all
/com,*********** Define Force Using Surface Effect Elements ***********
local,12,0,0.,0.,0.,0.,0.,0.
csys,0
et,13,154
eblock,10,,,344
(15i9)
     6144       13       13       13       12     2107     2109     2156     1813     3939     3943     3312     3311
     6145       13       13       13       12     2100     2115     1805     1811     3932     3295     3294     3307
     6146       13       13       13       12     1820     1813     2156     2155     3310     3312     3988     3333
     6147       13       13       13       12     1827     1820     2155     2154     3332     3333     3987     3348
     6148       13       13       13       12     1834     1827     2154     2153     3347     3348     3986     3363
     6149       13       13       13       12     1841     1834     2153     2152     3362     3363     3985     3378
     6150       13       13       13       12     1848     1841     2152     2151     3377     3378     3984     3393
     6151       13       13       13       12     1855     1848     2151     2150     3392     3393     3983     3408
     6152       13       13       13       12     1862     1855     2150     2149     3407     3408     3982     3423
     6153       13       13       13       12     1869     1862     2149     2148     3422     3423     3981     3438
     6154       13       13       13       12     1876     1869     2148     2147     3437     3438     3980     3453
     6155       13       13       13       12     1883     1876     2147     2146     3452     3453     3979     3468
     6156       13       13       13       12     1890     1883     2146     2145     3467     3468     3978     3483
     6157       13       13       13       12     1897     1890     2145     2144     3482     3483     3977     3498
     6158       13       13       13       12     1904     1897     2144     2143     3497     3498     3976     3513
     6159       13       13       13       12     1911     1904     2143     2142     3512     3513     3975     3528
     6160       13       13       13       12     1918     1911     2142     2141     3527     3528     3974     3543
     6161       13       13       13       12     1925     1918     2141     2140     3542     3543     3973     3558
     6162       13       13       13       12     1932     1925     2140     2139     3557     3558     3972     3573
     6163       13       13       13       12     1939     1932     2139     2138     3572     3573     3971     3588
! ... 325 like lines cut
esel,s,type,,13
keyop,13,2,1                ! Apply load in local coordinate system
keyop,13,7,1                ! Use original area so load is constant in large deformation
esel,all
/gst,on,on
fini
*get,_numnode,node,0,count
*get,_numelem,elem,0,count
*get, _MAXELEMNUM, elem, 0, NUM, MAX
*get, _MAXNODENUM, node, 0, NUM, MAX
*get, _MAXELEMTYPE, etyp, 0, NUM, MAX
*get, _MAXREALCONST, rcon, 0, NUM, MAX
/go
/wb,load,end               !  done creating loads
/com,--- Number of total nodes = %_numnode%
/com,--- Number of contact elements = 856
/com,--- Number of spring elements = 0
/com,--- Number of bearing elements = 0
/com,--- Number of solid elements = 3151
/com,--- Number of condensed parts = 0
/com,--- Number of total elements = %_numelem%
*get,_wallbsol,active,,time,wall
/com,****************************************************************************
/com,*************************    SOLUTION       ********************************
/com,****************************************************************************
/solu
antype,0                   ! static analysis
_thickRatio=0.25    ! Ratio of thick parts in the model
eqsl,sparse,,,,,1
cntr,print,1               ! print out contact info and also make no initial contact an error
dmpoption,emat,no             ! Don't combine emat file for DANSYS
dmpoption,esav,no             ! Don't combine esav file for DANSYS
nldiag,cont,iter           ! print out contact info each equilibrium iteration
rescontrol,,none                 ! Do not keep any restart files
/com,****************************************************
/com,******************* SOLVE FOR LS 1 OF 1 ****************
esel,s,type,,13
nsle
sfe,all,1,pres,1,0.
sfe,all,2,pres,1,0.
sfe,all,3,pres,1,53071.3813693161
nsel,all
esel,all
/nopr
/gopr
nsub,1,1,1
time,1.
outres,erase
outres,all,none
outres,nsol,all,
outres,rsol,all
outres,eangl,all
outres,etmp,all
outres,veng,all
outres,strs,all,
outres,epel,all,
outres,eppl,all,
outres,cont,all,
! *********** WB SOLVE COMMAND ***********
! check interactive state
*get,ANSINTER_,active,,int
*if,ANSINTER_,ne,0,then
/eof
*endif
solve
/com *************** Write FE CONNECTORS ********* 
CEWRITE,file,ce,,INTE
/com,****************************************************
/com,*************** FINISHED SOLVE FOR LS 1 *************
*get,_wallasol,active,,time,wall
/nopr
*get,_numnode,node,0,count
*get,_numelem,elem,0,count
*get, _MAXELEMNUM, elem, 0, NUM, MAX
*get, _MAXNODENUM, node, 0, NUM, MAX,,,INTERNAL
*get, _MAXELEMTYPE, etyp, 0, NUM, MAX
*get, _MAXREALCONST, rcon, 0, NUM, MAX
*get,_NSOLTHREADS,active,0,ntfs
*get,_NSOLPROCESSES,active,0,npfs
/gopr
/post1
xmlo,ENCODING,ISO-8859-1
xmlo,parm
/xml,parm,xml
fini
/gopr
*get,_walldone,active,,time,wall
_preptime=(_wallbsol-_wallstrt)*3600
_solvtime=(_wallasol-_wallbsol)*3600
_posttime=(_walldone-_wallasol)*3600
_totaltim=(_walldone-_wallstrt)*3600
*get,_dlbratio,active,0,solu,dlbr
*get,_combtime,active,0,solu,comb
*get,_ssmode,active,0,solu,ssmm
*get,_ndofs,active,0,solu,ndof
*get,_sol_end_time,active,0,set,time
*if,_sol_end_time,eq,1.000000,then
/fclean				!clean distributed files
*endif
/com,--- Total number of nodes = %_numnode%
/com,--- Total number of elements = %_numelem%
/com,--- Element load balance ratio = %_dlbratio%
/com,--- Time to combine distributed files = %_combtime%
/com,--- Sparse memory mode = %_ssmode%
/com,--- Number of DOF = %_ndofs%
/wb,file,end               ! done with WB generated input
