/batch
/config,noeldb,1     ! force off writing results to database
*get,_wallstrt,active,,time,wall
! ANSYS input file written by Workbench version 2022 R2
! File used for geometry attach: D:\Thesis\PEC_columbus.iges
/title,PEC_fatigue--Transient (C5)
! ****** Begin Custom Load Command Snippet ******
/COM, ACT Extensions:
/COM,     LSDYNA, 2022.2
/COM,     5f463412-bd3e-484b-87e7-cbc0a665e474, wbex
/COM,/COM,     ANSYSMotion, 2022.2
/COM,     20180725-3f81-49eb-9f31-41364844c769, wbex
/COM,
! ****** End   Custom Load Command Snippet ******
*DIM,_wb_ProjectScratch_dir,string,248
_wb_ProjectScratch_dir(1) = 'D:\Personal Work\PEC fatigue\_ProjectScratch\Scr05C0\'
*DIM,_wb_SolverFiles_dir,string,248
_wb_SolverFiles_dir(1) = 'D:\Personal Work\PEC fatigue\PEC_fatigue_files\dp0\SYS-2\MECH\'
*DIM,_wb_userfiles_dir,string,248
_wb_userfiles_dir(1) = 'D:\Personal Work\PEC fatigue\PEC_fatigue_files\user_files\'
/com,--- Data in consistent MKS units. See Solving Units in the help system for more information.
/units,MKS
/nopr
/wb,file,start              !  signify a WB generated input file
/prep7
! Turn off shape checking because checks already performed inside WB mesher.
! See help system for more information.
SHPP,OFF,,NOWARN
/nolist
etcon,set             ! allow ANSYS to choose best KEYOP's for 180x elements, resets any applicable keyopt to MAPDL defaults
/com,*********** Nodes for the whole assembly ***********
nblock,3,,7525
(1i9,3e20.9e3)
        1    -5.612902966E-02     1.009475191E-01    -2.843441486E-04
        2    -5.612902892E-02     1.009152264E-01    -1.202182832E-03
        3    -5.612902890E-02     1.000452126E-01    -1.582150521E-03
        4    -5.612902919E-02     9.925082587E-02    -9.567617945E-04
        5    -5.612903040E-02     9.897249506E-02     1.040212727E-03
        6    -5.612903124E-02     9.981035102E-02     1.325781294E-03
        7    -5.612903054E-02     1.005131462E-01     6.140691614E-04
        8    -5.612902977E-02     9.883864186E-02     2.733379358E-05
        9    -5.225806531E-02     1.009475191E-01    -2.843441486E-04
       10    -5.225806553E-02     1.009152264E-01    -1.202182832E-03
       11    -5.225806554E-02     1.000452126E-01    -1.582150521E-03
       12    -5.225806545E-02     9.925082587E-02    -9.567617945E-04
       13    -5.225806508E-02     9.897249506E-02     1.040212727E-03
       14    -5.225806483E-02     9.981035102E-02     1.325781294E-03
       15    -5.225806504E-02     1.005131462E-01     6.140691614E-04
       16    -5.225806528E-02     9.883864186E-02     2.733379358E-05
       17    -4.838709464E-02     1.009475191E-01    -2.843441486E-04
       18    -4.838709404E-02     1.009152264E-01    -1.202182832E-03
       19    -4.838709403E-02     1.000452126E-01    -1.582150521E-03
       20    -4.838709426E-02     9.925082587E-02    -9.567617945E-04
! ... 6822 like lines cut
/com,*********** Nodes for all Remote Points ***********
nblock,3
(1i9,3e20.9e3)
     6842     0.000000000E+00     9.997424875E-02     8.306420641E-20
     6843     0.000000000E+00     9.997424875E-02     8.306420641E-20
-1
/wb,elem,start            !  set before creation of elements
/com,*********** Elements for Body 1 "PEC_columbus-FreeParts" ***********
et,1,187
eblock,19,solid,,1965
(19i9)
        1        1        1        1        0        0        0        0       10        0      533     2763     2930     3129     2989     5169     5966     5171     5170
     5961     6296
        1        1        1        1        0        0        0        0       10        0      534     2525     3008     2693     2722     4274     4977     4270     4271
     5055     4975
        1        1        1        1        0        0        0        0       10        0      535     2892     3085     3066     3133     5640     6601     5639     5641
     6698     6605
        1        1        1        1        0        0        0        0       10        0      536     2526     3118     2692     2723     4281     4974     4276     4277
     5057     4973
        1        1        1        1        0        0        0        0       10        0      537     2494     3118     2692     2526     4085     4974     4083     4081
     4281     4276
        1        1        1        1        0        0        0        0       10        0      538     2554     3151     2753     2762     4456     5143     4453     4454
     5168     5141
        1        1        1        1        0        0        0        0       10        0      539     2498     2719     3115     2696     4110     5048     4111     4109
     4984     4986
        1        1        1        1        0        0        0        0       10        0      540     2522     2695     3124     2720     4252     4983     4258     4254
     4982     5050
        1        1        1        1        0        0        0        0       10        0      541     2498     3124     2522     2695     4112     4258     4107     4108
     4983     4252
        1        1        1        1        0        0        0        0       10        0      542     2939     3152     3066     2943     6031     6606     6028     6025
     6058     6055
! ... 3911 like lines cut
!Material Id = {AA7AEDDD-1228-49F1-B762-94503157F7C5}
/com,*********** Elements for Body 2 "PEC_columbus-FreeParts[2]" ***********
et,2,187
eblock,19,solid,,191
(19i9)
        2        2        2        2        0        0        0        0       10        0      342     1856     1870     1861     1871     2026     2051     2024     2027
     2090     2052
        2        2        2        2        0        0        0        0       10        0      343     1911     1914     1915     1931     2268     2279     2269     2270
     2281     2285
        2        2        2        2        0        0        0        0       10        0      344     1855     1871     1856     1861     2019     2027     2016     2018
     2052     2024
        2        2        2        2        0        0        0        0       10        0      345     1902     1933     1934     1940     2235     2329     2236     2237
     2330     2332
        2        2        2        2        0        0        0        0       10        0      346     1860     1864     1928     1863     2046     2067     2048     2045
     2062     2063
        2        2        2        2        0        0        0        0       10        0      347     1893     1898     1923     1899     2182     2220     2185     2183
     2214     2224
        2        2        2        2        0        0        0        0       10        0      348     1890     1940     1934     1926     2167     2332     2165     2164
     2318     2316
        2        2        2        2        0        0        0        0       10        0      349     1926     1934     1927     1940     2316     2322     2315     2318
     2332     2323
        2        2        2        2        0        0        0        0       10        0      350     1889     1927     1903     1940     2157     2239     2155     2158
     2323     2242
        2        2        2        2        0        0        0        0       10        0      351     1860     1928     1864     1861     2048     2067     2046     2044
     2055     2050
! ... 363 like lines cut
!Material Id = {6A801BD8-16E8-4CA7-B26C-CBAB35D4D43C}
/com,*********** Elements for Body 3 "PEC_columbus-FreeParts[3]" ***********
et,3,186
keyo,3,2,1          ! set full integration on SOLID186
eblock,19,solid,,341
(19i9)
        3        3        3        3        0        0        0        0       20        0        1        1        4        8        7      248      245      241      242
      514      527      540      515     1312     1303     1301     1306      517      529      545      542
        3        3        3        3        0        0        0        0       20        0        2        1        7        8        4        9       15       16       12
      515      540      527      514      549      568      558      548      516      541      544      528
        3        3        3        3        0        0        0        0       20        0        3        9       15       16       12       17       23       24       20
      549      568      558      548      575      594      584      574      550      569      571      559
        3        3        3        3        0        0        0        0       20        0        4       17       23       24       20       25       31       32       28
      575      594      584      574      601      620      610      600      576      595      597      585
        3        3        3        3        0        0        0        0       20        0        5       25       31       32       28       33       39       40       36
      601      620      610      600      627      646      636      626      602      621      623      611
        3        3        3        3        0        0        0        0       20        0        6       33       39       40       36       41       47       48       44
      627      646      636      626      653      672      662      652      628      647      649      637
        3        3        3        3        0        0        0        0       20        0        7       41       47       48       44       49       55       56       52
      653      672      662      652      679      698      688      678      654      673      675      663
        3        3        3        3        0        0        0        0       20        0        8       49       55       56       52       57       63       64       60
      679      698      688      678      705      724      714      704      680      699      701      689
        3        3        3        3        0        0        0        0       20        0        9       57       63       64       60       65       71       72       68
      705      724      714      704      731      750      740      730      706      725      727      715
        3        3        3        3        0        0        0        0       20        0       10       65       71       72       68       73       79       80       76
      731      750      740      730      757      776      766      756      732      751      753      741
! ... 663 like lines cut
!Material Id = {B41ECA1A-4FA8-4DDB-BF35-775B24303EAD}
/wb,elem,end               !  done creating elements
/com,*********** Send User Defined Coordinate System(s) ***********
local,12,0,0.,9.99742487507333e-002,8.30642064063864e-020,-4.2964952914991e-031,7.01670929853488e-015,90.
csys,0
toffst,273.15,  ! Temperature offset from absolute zero
/com,*********** Set Reference Temperature ***********
tref,22.
/wb,mat,start              !  starting to send materials
/com,*********** Send Materials ***********
Temperature = 'TEMP' ! Temperature
MP,DENS,1,7850,	! kg m^-3
MP,ALPX,1,1.2e-05,	! C^-1
MP,C,1,434,	! J kg^-1 C^-1
MP,KXX,1,60.5,	! W m^-1 C^-1
MP,RSVX,1,1.7e-07,	! kg m^3 A^-2 s^-3
MP,EX,1,200000000000,	! Pa
MP,NUXY,1,0.3,
MP,MURX,1,10000,
MP,UVID,1,57f3ba11-7784-4133-bdcc-78500daecdcc
MP,UMID,1,59002a79-71c2-428e-906b-55d7dbee100e

Temperature = 'TEMP' ! Temperature
MP,DENS,2,7850,	! kg m^-3
MP,ALPX,2,1.2e-05,	! C^-1
MP,C,2,434,	! J kg^-1 C^-1
MP,KXX,2,60.5,	! W m^-1 C^-1
MP,RSVX,2,1.7e-07,	! kg m^3 A^-2 s^-3
MP,EX,2,200000000000,	! Pa
MP,NUXY,2,0.3,
MP,MURX,2,10000,
MP,UVID,2,57f3ba11-7784-4133-bdcc-78500daecdcc
MP,UMID,2,59002a79-71c2-428e-906b-55d7dbee100e

Temperature = 'TEMP' ! Temperature
MP,DENS,3,7850,	! kg m^-3
MP,ALPX,3,1.2e-05,	! C^-1
MP,C,3,434,	! J kg^-1 C^-1
MP,KXX,3,60.5,	! W m^-1 C^-1
MP,RSVX,3,1.7e-07,	! kg m^3 A^-2 s^-3
MP,EX,3,200000000000,	! Pa
MP,NUXY,3,0.3,
MP,MURX,3,10000,
MP,UVID,3,57f3ba11-7784-4133-bdcc-78500daecdcc
MP,UMID,3,59002a79-71c2-428e-906b-55d7dbee100e

/wb,mat,end                !  done sending materials
!************************* Model Summary ********************
!PEC_columbus-FreeParts,	Structural Steel,	matid,	1
!PEC_columbus-FreeParts[2],	Structural Steel,	matid,	2
!PEC_columbus-FreeParts[3],	Structural Steel,	matid,	3
!************************* End Model Summary ********************
! get the diagonal of the bounding box. Needed later for other things
*get,_xmin,node,,mnloc,x
*get,_ymin,node,,mnloc,y
*get,_zmin,node,,mnloc,z
*get,_xmax,node,,mxloc,x
*get,_ymax,node,,mxloc,y
*get,_zmax,node,,mxloc,z
_ASMDIAG=(_xmax-_xmin)*(_xmax-_xmin)+(_ymax-_ymin)*(_ymax-_ymin)+(_zmax-_zmin)*(_zmax-_zmin)
_ASMDIAG=SQRT(_ASMDIAG)
/wb,contact,start          !  starting to send contact
/com,*********** Create Contact "Frictionless - PEC_columbus-FreeParts To PEC_columbus-FreeParts[3]" ***********
/com,            Real Constant Set For Above Contact Is 5 & 4 
*set,tid,5
*set,cid,4
r,tid
r,cid
et,tid,170
et,cid,174
eblock,10,,,32
(15i9)
     4659        5        5        5        0     2342     2351     2343     2343     3203     3210     2343     3202
     4660        5        5        5        0     2343     2351     2344     2344     3210     3217     2344     3209
     4661        5        5        5        0     2344     2350     2349     2349     3216     3240     2349     3215
     4662        5        5        5        0     2344     2349     2345     2345     3215     3221     2345     3214
     4663        5        5        5        0     2339     2346     2347     2347     3186     3225     2347     3187
     4664        5        5        5        0     2346     2348     2347     2347     3226     3232     2347     3225
     4665        5        5        5        0     2348     2346     2349     2349     3226     3227     2349     3237
     4666        5        5        5        0     2349     2346     2345     2345     3227     3220     2345     3221
     4667        5        5        5        0     2344     2351     2350     2350     3217     3244     2350     3216
     4668        5        5        5        0     2340     2354     2353     2353     3194     3256     2353     3193
     4669        5        5        5        0     2354     2340     2347     2347     3194     3192     2347     3233
     4670        5        5        5        0     2342     2352     2351     2351     3204     3249     2351     3203
     4671        5        5        5        0     2342     2353     2352     2352     3205     3253     2352     3204
     4672        5        5        5        0     2341     2353     2342     2342     3198     3205     2342     3197
     4673        5        5        5        0     2340     2353     2341     2341     3193     3198     2341     3191
     4674        5        5        5        0     2347     2340     2339     2339     3192     3185     2339     3187
     4675        5        5        5        0     2362     2364     2363     2363     3305     3311     2363     3304
     4676        5        5        5        0     2358     2369     2368     2368     3284     3332     2368     3283
     4677        5        5        5        0     2362     2365     2364     2364     3306     3316     2364     3305
     4678        5        5        5        0     2355     2362     2363     2363     3264     3304     2363     3265
! ... 13 like lines cut
eblock,10,,,32
(15i9)
     4691        4        4        4        0     2342     2351     2343     2343     3203     3210     2343     3202
     4692        4        4        4        0     2343     2351     2344     2344     3210     3217     2344     3209
     4693        4        4        4        0     2344     2350     2349     2349     3216     3240     2349     3215
     4694        4        4        4        0     2344     2349     2345     2345     3215     3221     2345     3214
     4695        4        4        4        0     2339     2346     2347     2347     3186     3225     2347     3187
     4696        4        4        4        0     2346     2348     2347     2347     3226     3232     2347     3225
     4697        4        4        4        0     2348     2346     2349     2349     3226     3227     2349     3237
     4698        4        4        4        0     2349     2346     2345     2345     3227     3220     2345     3221
     4699        4        4        4        0     2344     2351     2350     2350     3217     3244     2350     3216
     4700        4        4        4        0     2340     2354     2353     2353     3194     3256     2353     3193
     4701        4        4        4        0     2354     2340     2347     2347     3194     3192     2347     3233
     4702        4        4        4        0     2342     2352     2351     2351     3204     3249     2351     3203
     4703        4        4        4        0     2342     2353     2352     2352     3205     3253     2352     3204
     4704        4        4        4        0     2341     2353     2342     2342     3198     3205     2342     3197
     4705        4        4        4        0     2340     2353     2341     2341     3193     3198     2341     3191
     4706        4        4        4        0     2347     2340     2339     2339     3192     3185     2339     3187
     4707        4        4        4        0     2362     2364     2363     2363     3305     3311     2363     3304
     4708        4        4        4        0     2358     2369     2368     2368     3284     3332     2368     3283
     4709        4        4        4        0     2362     2365     2364     2364     3306     3316     2364     3305
     4710        4        4        4        0     2355     2362     2363     2363     3264     3304     2363     3265
! ... 13 like lines cut
eblock,10,,,248
(15i9)
     4723        4        5        4        0      475      482      512      265     1804     1811     1356     1355
     4724        4        5        4        0      468      483      257      263     1796     1339     1338     1351
     4725        4        5        4        0      272      265      512      511     1354     1356     1840     1377
     4726        4        5        4        0      279      272      511      510     1376     1377     1839     1392
     4727        4        5        4        0      286      279      510      509     1391     1392     1838     1407
     4728        4        5        4        0      293      286      509      508     1406     1407     1837     1422
     4729        4        5        4        0      300      293      508      507     1421     1422     1836     1437
     4730        4        5        4        0      307      300      507      506     1436     1437     1835     1452
     4731        4        5        4        0      314      307      506      505     1451     1452     1834     1467
     4732        4        5        4        0      321      314      505      504     1466     1467     1833     1482
     4733        4        5        4        0      328      321      504      503     1481     1482     1832     1497
     4734        4        5        4        0      335      328      503      502     1496     1497     1831     1512
     4735        4        5        4        0      342      335      502      501     1511     1512     1830     1527
     4736        4        5        4        0      349      342      501      500     1526     1527     1829     1542
     4737        4        5        4        0      356      349      500      499     1541     1542     1828     1557
     4738        4        5        4        0      363      356      499      498     1556     1557     1827     1572
     4739        4        5        4        0      370      363      498      497     1571     1572     1826     1587
     4740        4        5        4        0      377      370      497      496     1586     1587     1825     1602
     4741        4        5        4        0      384      377      496      495     1601     1602     1824     1617
     4742        4        5        4        0      391      384      495      494     1616     1617     1823     1632
! ... 229 like lines cut
eblock,10,,,248
(15i9)
     4971        5        4        5        0      475      482      512      265     1804     1811     1356     1355
     4972        5        4        5        0      468      483      257      263     1796     1339     1338     1351
     4973        5        4        5        0      272      265      512      511     1354     1356     1840     1377
     4974        5        4        5        0      279      272      511      510     1376     1377     1839     1392
     4975        5        4        5        0      286      279      510      509     1391     1392     1838     1407
     4976        5        4        5        0      293      286      509      508     1406     1407     1837     1422
     4977        5        4        5        0      300      293      508      507     1421     1422     1836     1437
     4978        5        4        5        0      307      300      507      506     1436     1437     1835     1452
     4979        5        4        5        0      314      307      506      505     1451     1452     1834     1467
     4980        5        4        5        0      321      314      505      504     1466     1467     1833     1482
     4981        5        4        5        0      328      321      504      503     1481     1482     1832     1497
     4982        5        4        5        0      335      328      503      502     1496     1497     1831     1512
     4983        5        4        5        0      342      335      502      501     1511     1512     1830     1527
     4984        5        4        5        0      349      342      501      500     1526     1527     1829     1542
     4985        5        4        5        0      356      349      500      499     1541     1542     1828     1557
     4986        5        4        5        0      363      356      499      498     1556     1557     1827     1572
     4987        5        4        5        0      370      363      498      497     1571     1572     1826     1587
     4988        5        4        5        0      377      370      497      496     1586     1587     1825     1602
     4989        5        4        5        0      384      377      496      495     1601     1602     1824     1617
     4990        5        4        5        0      391      384      495      494     1616     1617     1823     1632
! ... 229 like lines cut
keyo,cid,8,2               ! auto create asymmetric contact (from Program Controlled setting)
keyo,cid,10,0              ! adjust contact stiffness each NR iteration (from Program Controlled setting)
keyo,cid,12,0              ! standard contact
keyo,cid,2,0               ! augmented Lagrange (from Program Controlled setting)
keyo,cid,4,0               ! on Gauss point (from Program Controlled setting)
keyo,cid,9,0               ! use real geometry with stepped effects
keyo,cid,7,0               ! No Prediction
rmod,tid,3,1.       ! FKN
rmod,tid,5,0.       ! ICONT
rmod,tid,6,0.       ! PINB
rmod,tid,10,0.      ! CNOF
rmod,tid,12,0.      ! FKT
rmod,tid,36,32      ! WB DSID
rmod,cid,3,1.       ! FKN
rmod,cid,5,0.       ! ICONT
rmod,cid,6,0.       ! PINB
rmod,cid,10,0.      ! CNOF
rmod,cid,12,0.      ! FKT
rmod,cid,36,32      ! WB DSID
/com,*********** Create Contact "Contact Region 2" ***********
/com,            Real Constant Set For Above Contact Is 7 & 6 
*set,tid,7
*set,cid,6
r,tid
r,cid
et,tid,170
et,cid,174
eblock,10,,,18
(15i9)
     5219        7        7        7        0     1912     1914     1939     1939     2271     2282     1939     2274
     5220        7        7        7        0     1911     1910     1915     1915     2264     2265     1915     2269
     5221        7        7        7        0     1905     1912     1939     1939     2247     2274     1939     2248
     5222        7        7        7        0     1913     1939     1914     1914     2278     2282     1914     2275
     5223        7        7        7        0     1910     1916     1915     1915     2266     2283     1915     2265
     5224        7        7        7        0     1912     1911     1914     1914     2267     2268     1914     2271
     5225        7        7        7        0     1909     1917     1916     1916     2263     2286     1916     2262
     5226        7        7        7        0     1911     1915     1914     1914     2269     2279     1914     2268
     5227        7        7        7        0     1908     1918     1917     1917     2260     2289     1917     2259
     5228        7        7        7        0     1910     1909     1916     1916     2261     2262     1916     2266
     5229        7        7        7        0     1907     1919     1918     1918     2256     2291     1918     2255
     5230        7        7        7        0     1909     1908     1917     1917     2258     2259     1917     2263
     5231        7        7        7        0     1906     1939     1920     1920     2253     2299     1920     2251
     5232        7        7        7        0     1908     1907     1918     1918     2254     2255     1918     2260
     5233        7        7        7        0     1907     1906     1919     1919     2249     2250     1919     2256
     5234        7        7        7        0     1913     1920     1939     1939     2276     2299     1939     2278
     5235        7        7        7        0     1906     1920     1919     1919     2251     2294     1919     2250
     5236        7        7        7        0     1905     1939     1906     1906     2248     2253     1906     2246
-1
eblock,10,,,18
(15i9)
     5237        6        6        6        0     1912     1914     1939     1939     2271     2282     1939     2274
     5238        6        6        6        0     1911     1910     1915     1915     2264     2265     1915     2269
     5239        6        6        6        0     1905     1912     1939     1939     2247     2274     1939     2248
     5240        6        6        6        0     1913     1939     1914     1914     2278     2282     1914     2275
     5241        6        6        6        0     1910     1916     1915     1915     2266     2283     1915     2265
     5242        6        6        6        0     1912     1911     1914     1914     2267     2268     1914     2271
     5243        6        6        6        0     1909     1917     1916     1916     2263     2286     1916     2262
     5244        6        6        6        0     1911     1915     1914     1914     2269     2279     1914     2268
     5245        6        6        6        0     1908     1918     1917     1917     2260     2289     1917     2259
     5246        6        6        6        0     1910     1909     1916     1916     2261     2262     1916     2266
     5247        6        6        6        0     1907     1919     1918     1918     2256     2291     1918     2255
     5248        6        6        6        0     1909     1908     1917     1917     2258     2259     1917     2263
     5249        6        6        6        0     1906     1939     1920     1920     2253     2299     1920     2251
     5250        6        6        6        0     1908     1907     1918     1918     2254     2255     1918     2260
     5251        6        6        6        0     1907     1906     1919     1919     2249     2250     1919     2256
     5252        6        6        6        0     1913     1920     1939     1939     2276     2299     1939     2278
     5253        6        6        6        0     1906     1920     1919     1919     2251     2294     1919     2250
     5254        6        6        6        0     1905     1939     1906     1906     2248     2253     1906     2246
-1
eblock,10,,,24
(15i9)
     5255        6        7        6        0      363      356      499      498     1556     1557     1827     1572
     5256        6        7        6        0      370      363      498      497     1571     1572     1826     1587
     5257        6        7        6        0      377      370      497      496     1586     1587     1825     1602
     5258        6        7        6        0      363      364      357      356     1570     1559     1555     1556
     5259        6        7        6        0      370      371      364      363     1585     1574     1570     1571
     5260        6        7        6        0      377      378      371      370     1600     1589     1585     1586
     5261        6        7        6        0      364      365      358      357     1573     1561     1558     1559
     5262        6        7        6        0      371      372      365      364     1588     1576     1573     1574
     5263        6        7        6        0      378      379      372      371     1603     1591     1588     1589
     5264        6        7        6        0      365      366      359      358     1575     1563     1560     1561
     5265        6        7        6        0      372      373      366      365     1590     1578     1575     1576
     5266        6        7        6        0      379      380      373      372     1605     1593     1590     1591
     5267        6        7        6        0      366      367      360      359     1577     1565     1562     1563
     5268        6        7        6        0      373      374      367      366     1592     1580     1577     1578
     5269        6        7        6        0      380      381      374      373     1607     1595     1592     1593
     5270        6        7        6        0      367      368      361      360     1579     1567     1564     1565
     5271        6        7        6        0      374      375      368      367     1594     1582     1579     1580
     5272        6        7        6        0      381      382      375      374     1609     1597     1594     1595
     5273        6        7        6        0      368      369      362      361     1581     1568     1566     1567
     5274        6        7        6        0      375      376      369      368     1596     1583     1581     1582
! ... 5 like lines cut
eblock,10,,,24
(15i9)
     5279        7        6        7        0      363      356      499      498     1556     1557     1827     1572
     5280        7        6        7        0      370      363      498      497     1571     1572     1826     1587
     5281        7        6        7        0      377      370      497      496     1586     1587     1825     1602
     5282        7        6        7        0      363      364      357      356     1570     1559     1555     1556
     5283        7        6        7        0      370      371      364      363     1585     1574     1570     1571
     5284        7        6        7        0      377      378      371      370     1600     1589     1585     1586
     5285        7        6        7        0      364      365      358      357     1573     1561     1558     1559
     5286        7        6        7        0      371      372      365      364     1588     1576     1573     1574
     5287        7        6        7        0      378      379      372      371     1603     1591     1588     1589
     5288        7        6        7        0      365      366      359      358     1575     1563     1560     1561
     5289        7        6        7        0      372      373      366      365     1590     1578     1575     1576
     5290        7        6        7        0      379      380      373      372     1605     1593     1590     1591
     5291        7        6        7        0      366      367      360      359     1577     1565     1562     1563
     5292        7        6        7        0      373      374      367      366     1592     1580     1577     1578
     5293        7        6        7        0      380      381      374      373     1607     1595     1592     1593
     5294        7        6        7        0      367      368      361      360     1579     1567     1564     1565
     5295        7        6        7        0      374      375      368      367     1594     1582     1579     1580
     5296        7        6        7        0      381      382      375      374     1609     1597     1594     1595
     5297        7        6        7        0      368      369      362      361     1581     1568     1566     1567
     5298        7        6        7        0      375      376      369      368     1596     1583     1581     1582
! ... 5 like lines cut
keyo,cid,8,2               ! auto create asymmetric contact (from Program Controlled setting)
keyo,cid,10,0              ! adjust contact stiffness each NR iteration (from Program Controlled setting)
keyo,cid,12,5              ! bonded always
keyo,cid,18,1              ! small sliding turned on by application
keyo,cid,2,0               ! augmented Lagrange (from Program Controlled setting)
keyo,cid,4,0               ! on Gauss point (from Program Controlled setting)
keyo,cid,9,1               ! ignore initial gaps/penetration
keyo,cid,7,0               ! No Prediction
rmod,tid,3,1.       ! FKN
rmod,tid,5,0.       ! ICONT
rmod,tid,6,0.       ! PINB
rmod,tid,10,0.      ! CNOF
rmod,tid,12,0.      ! FKT
rmod,tid,36,35      ! WB DSID
rmod,cid,3,1.       ! FKN
rmod,cid,5,0.       ! ICONT
rmod,cid,6,0.       ! PINB
rmod,cid,10,0.      ! CNOF
rmod,cid,12,0.      ! FKT
rmod,cid,36,35      ! WB DSID
nsel,all
esel,all
/wb,contact,end            !  done creating contacts
/golist
/wb,load,start             !  starting to send loads
/com,******* Constant Zero Displacement X *******
CMBLOCK,_DISPZEROUX,NODE,      825
(8i10)
      2475      2476      2477      2478      2479      2480      2481      2482
      2483      2493      2494      2495      2496      2497      2498      2499
      2500      2501      2502      2503      2504      2505      2506      2507
      2508      2509      2527      2528      2529      2530      2531      2532
      2533      2534      2543      2544      2545      2546      2547      2548
      2549      2550      2551      2552      2553      2554      2555      2556
      2557      2558      2675      2676      2677      2678      2679      2680
      2681      2682      2691      2692      2693      2694      2695      2696
      2697      2698      2699      2700      2701      2702      2703      2704
      2705      2706      2707      2725      2726      2727      2728      2729
      2730      2731      2732      2741      2742      2743      2744      2745
      2746      2747      2748      2749      2750      2751      2752      2753
      2754      2755      2756      2757      3050      3051      3052      3053
      3054      3055      3056      3057      3058      3059      3060      3061
      3062      3063      3064      3065      3066      3067      3068      3069
      3070      3071      3072      3073      3074      3075      3076      3077
      3078      3079      3080      3081      3082      3083      3084      3085
      3086      3087      3088      3089      3090      3091      3092      3093
      3094      3095      3096      3097      3098      3099      3100      3101
      3102      3103      3104      3105      3106      3107      3108      3109
! ... 84 like lines cut
cmsel,s,_DISPZEROUX
d,all,ux,0
nsel,all
/com,******* Constant Zero Displacement Y *******
CMBLOCK,_DISPZEROUY,NODE,      825
(8i10)
      2475      2476      2477      2478      2479      2480      2481      2482
      2483      2493      2494      2495      2496      2497      2498      2499
      2500      2501      2502      2503      2504      2505      2506      2507
      2508      2509      2527      2528      2529      2530      2531      2532
      2533      2534      2543      2544      2545      2546      2547      2548
      2549      2550      2551      2552      2553      2554      2555      2556
      2557      2558      2675      2676      2677      2678      2679      2680
      2681      2682      2691      2692      2693      2694      2695      2696
      2697      2698      2699      2700      2701      2702      2703      2704
      2705      2706      2707      2725      2726      2727      2728      2729
      2730      2731      2732      2741      2742      2743      2744      2745
      2746      2747      2748      2749      2750      2751      2752      2753
      2754      2755      2756      2757      3050      3051      3052      3053
      3054      3055      3056      3057      3058      3059      3060      3061
      3062      3063      3064      3065      3066      3067      3068      3069
      3070      3071      3072      3073      3074      3075      3076      3077
      3078      3079      3080      3081      3082      3083      3084      3085
      3086      3087      3088      3089      3090      3091      3092      3093
      3094      3095      3096      3097      3098      3099      3100      3101
      3102      3103      3104      3105      3106      3107      3108      3109
! ... 84 like lines cut
cmsel,s,_DISPZEROUY
d,all,uy,0
nsel,all
/com,******* Constant Zero Displacement Z *******
CMBLOCK,_DISPZEROUZ,NODE,      825
(8i10)
      2475      2476      2477      2478      2479      2480      2481      2482
      2483      2493      2494      2495      2496      2497      2498      2499
      2500      2501      2502      2503      2504      2505      2506      2507
      2508      2509      2527      2528      2529      2530      2531      2532
      2533      2534      2543      2544      2545      2546      2547      2548
      2549      2550      2551      2552      2553      2554      2555      2556
      2557      2558      2675      2676      2677      2678      2679      2680
      2681      2682      2691      2692      2693      2694      2695      2696
      2697      2698      2699      2700      2701      2702      2703      2704
      2705      2706      2707      2725      2726      2727      2728      2729
      2730      2731      2732      2741      2742      2743      2744      2745
      2746      2747      2748      2749      2750      2751      2752      2753
      2754      2755      2756      2757      3050      3051      3052      3053
      3054      3055      3056      3057      3058      3059      3060      3061
      3062      3063      3064      3065      3066      3067      3068      3069
      3070      3071      3072      3073      3074      3075      3076      3077
      3078      3079      3080      3081      3082      3083      3084      3085
      3086      3087      3088      3089      3090      3091      3092      3093
      3094      3095      3096      3097      3098      3099      3100      3101
      3102      3103      3104      3105      3106      3107      3108      3109
! ... 84 like lines cut
cmsel,s,_DISPZEROUZ
d,all,uz,0
nsel,all
/com,*********** Create Remote Point "Internal Remote Point 2" ***********
! -------- Remote Point Used by "Revolute - Ground To PEC_columbus-FreeParts[3]" --------
*set,tid,9
*set,cid,8
et,cid,174
et,tid,170
keyo,tid,2,1               ! Don't fix the pilot node
keyo,tid,4,0               ! Activate all DOF's due to large deformation
keyo,cid,12,5              ! Bonded Contact 
keyo,cid,4,1               ! Deformable RBE3 style load
keyo,cid,2,2               ! MPC style contact
eblock,10,,,248
(15i9)
     5303        8        8        8        0      475      482      512      265     1804     1811     1356     1355
     5304        8        8        8        0      468      483      257      263     1796     1339     1338     1351
     5305        8        8        8        0      272      265      512      511     1354     1356     1840     1377
     5306        8        8        8        0      279      272      511      510     1376     1377     1839     1392
     5307        8        8        8        0      286      279      510      509     1391     1392     1838     1407
     5308        8        8        8        0      293      286      509      508     1406     1407     1837     1422
     5309        8        8        8        0      300      293      508      507     1421     1422     1836     1437
     5310        8        8        8        0      307      300      507      506     1436     1437     1835     1452
     5311        8        8        8        0      314      307      506      505     1451     1452     1834     1467
     5312        8        8        8        0      321      314      505      504     1466     1467     1833     1482
     5313        8        8        8        0      328      321      504      503     1481     1482     1832     1497
     5314        8        8        8        0      335      328      503      502     1496     1497     1831     1512
     5315        8        8        8        0      342      335      502      501     1511     1512     1830     1527
     5316        8        8        8        0      349      342      501      500     1526     1527     1829     1542
     5317        8        8        8        0      356      349      500      499     1541     1542     1828     1557
     5318        8        8        8        0      363      356      499      498     1556     1557     1827     1572
     5319        8        8        8        0      370      363      498      497     1571     1572     1826     1587
     5320        8        8        8        0      377      370      497      496     1586     1587     1825     1602
     5321        8        8        8        0      384      377      496      495     1601     1602     1824     1617
     5322        8        8        8        0      391      384      495      494     1616     1617     1823     1632
! ... 229 like lines cut
*set,_npilot,6843
_npilot47=_npilot
type,tid
mat ,cid
real,cid
tshape,pilo
en,5551,_npilot
tshape
csys,12
nrot,6843
csys,0
/com,*********** Create Joint "Revolute - Ground To PEC_columbus-FreeParts[3]" ***********
/com,            Real Constant Set For Above Joint Is 10
! Joint Element Type Declaration and Definition using MPC184
*set,_jid,10
et,_jid,184
keyo,_jid,1,6           ! Revolute Joint
keyo,_jid,4,1           ! Z Axis is revolute axis
sectype,_jid, joint, revo, _wbjoint
secjoint,,12,12
mat,_jid
real,_jid
type,_jid
secnum,_jid
en,4656,,6843        ! body to ground joint
/com,*********** Define Force Using Surface Effect Elements ***********
local,13,0,0.,0.,0.,0.,0.,0.
csys,0
et,11,154
eblock,10,,,16
(15i9)
     5552       11       11       11       13     1870     1882     1871     1871     2091     2097     1871     2090
     5553       11       11       11       13     1878     1885     1879     1879     2121     2124     1879     2120
     5554       11       11       11       13     1872     1880     1873     1873     2100     2106     1873     2099
     5555       11       11       11       13     1873     1879     1885     1885     2105     2124     1885     2107
     5556       11       11       11       13     1869     1884     1883     1883     2087     2135     1883     2086
     5557       11       11       11       13     1873     1880     1879     1879     2106     2123     1879     2105
     5558       11       11       11       13     1870     1883     1882     1882     2092     2132     1882     2091
     5559       11       11       11       13     1872     1881     1880     1880     2101     2127     1880     2100
     5560       11       11       11       13     1871     1882     1881     1881     2097     2130     1881     2096
     5561       11       11       11       13     1871     1881     1872     1872     2096     2101     1872     2095
     5562       11       11       11       13     1869     1883     1870     1870     2086     2092     1870     2085
     5563       11       11       11       13     1875     1884     1877     1877     2114     2118     1877     2113
     5564       11       11       11       13     1867     1873     1885     1885     2078     2107     1885     2080
     5565       11       11       11       13     1868     1877     1884     1884     2082     2118     1884     2083
     5566       11       11       11       13     1868     1884     1869     1869     2083     2087     1869     2081
     5567       11       11       11       13     1865     1877     1868     1868     2073     2082     1868     2072
-1
esel,s,type,,11
keyop,11,2,1                ! Apply load in local coordinate system
keyop,11,7,1                ! Use original area so load is constant in large deformation
esel,all
/com,*********** Create Joint Drivers **********
/gst,on,on
fini
*get,_numnode,node,0,count
*get,_numelem,elem,0,count
*get, _MAXELEMNUM, elem, 0, NUM, MAX
*get, _MAXNODENUM, node, 0, NUM, MAX
*get, _MAXELEMTYPE, etyp, 0, NUM, MAX
*get, _MAXREALCONST, rcon, 0, NUM, MAX
/go
/wb,load,end               !  done creating loads
/com,--- Number of total nodes = %_numnode%
/com,--- Number of contact elements = 908
/com,--- Number of spring elements = 0
/com,--- Number of bearing elements = 0
/com,--- Number of solid elements = 2497
/com,--- Number of condensed parts = 0
/com,--- Number of total elements = %_numelem%
*get,_wallbsol,active,,time,wall
/com,****************************************************************************
/com,*************************    SOLUTION       ********************************
/com,****************************************************************************
/solu
antype,4                   ! transient analysis
nlgeom,on                  ! Turn on Large Deformation Effects
kbc,1                      ! stepped BC's
_thickRatio=0.333   ! Ratio of thick parts in the model
eqsl,sparse,,,,,1
cntr,print,1               ! print out contact info and also make no initial contact an error
dmpoption,emat,no             ! Don't combine emat file for DANSYS
dmpoption,esav,no             ! Don't combine esav file for DANSYS
trnopt,full,,,,,hht        ! HHT time integration method
tintp, mosp			! Choose transient integration settings for moderate speed application
nldiag,cont,iter           ! print out contact info each equilibrium iteration
rescontrol,define,last,last,,dele	   ! Program Controlled
/com,****************************************************
/com,******************* SOLVE FOR LS 1 OF 1 ****************
esel,s,type,,11
nsle
sfe,all,1,pres,1,0.
sfe,all,2,pres,1,-682294.724038958
sfe,all,3,pres,1,0.
nsel,all
esel,all
/nopr
/gopr
esel,s,type,,10
dj,all,omgz,1.0471975511966
esel,all
autots,on                   ! User turned on automatic time stepping
deltim,1,0.1,1,OFF
time,1.
timint,on                  ! Turn on time integration effects
outres,erase
outres,all,none
outres,nsol,all,
outres,rsol,all
outres,eangl,all
outres,etmp,all
outres,veng,all
outres,strs,all,
outres,epel,all,
outres,eppl,all,
outres,cont,all,
outres,v,all,
outres,a,all,
/nopr
esel,s,type,,10
cm,_elmisc,elem
esel,all
/gopr
outres,misc,all,_elmisc
! *********** WB SOLVE COMMAND ***********
! check interactive state
*get,ANSINTER_,active,,int
*if,ANSINTER_,ne,0,then
/eof
*endif
solve
/com *************** Write FE CONNECTORS ********* 
CEWRITE,file,ce,,INTE
/com,****************************************************
/com,*************** FINISHED SOLVE FOR LS 1 *************
*get,_wallasol,active,,time,wall
/nopr
*get,_numnode,node,0,count
*get,_numelem,elem,0,count
*get, _MAXELEMNUM, elem, 0, NUM, MAX
*get, _MAXNODENUM, node, 0, NUM, MAX,,,INTERNAL
*get, _MAXELEMTYPE, etyp, 0, NUM, MAX
*get, _MAXREALCONST, rcon, 0, NUM, MAX
*get,_NSOLTHREADS,active,0,ntfs
*get,_NSOLPROCESSES,active,0,npfs
/gopr
/post1
xmlo,ENCODING,ISO-8859-1
xmlo,parm
/xml,parm,xml
fini
/gopr
*get,_walldone,active,,time,wall
_preptime=(_wallbsol-_wallstrt)*3600
_solvtime=(_wallasol-_wallbsol)*3600
_posttime=(_walldone-_wallasol)*3600
_totaltim=(_walldone-_wallstrt)*3600
*get,_dlbratio,active,0,solu,dlbr
*get,_combtime,active,0,solu,comb
*get,_ssmode,active,0,solu,ssmm
*get,_ndofs,active,0,solu,ndof
*get,_sol_end_time,active,0,set,time
*if,_sol_end_time,eq,1.000000,then
/fclean				!clean distributed files
*endif
/com,--- Total number of nodes = %_numnode%
/com,--- Total number of elements = %_numelem%
/com,--- Element load balance ratio = %_dlbratio%
/com,--- Time to combine distributed files = %_combtime%
/com,--- Sparse memory mode = %_ssmode%
/com,--- Number of DOF = %_ndofs%
/wb,file,end               ! done with WB generated input
