/batch
/config,noeldb,1     ! force off writing results to database
*get,_wallstrt,active,,time,wall
! ANSYS input file written by Workbench version 2022 R2
! File used for geometry attach: D:\Thesis\weld_T.iges
/title,wbnew--Static Structural (A5)
! ****** Begin Custom Load Command Snippet ******
/COM, ACT Extensions:
/COM,     LSDYNA, 2022.2
/COM,     5f463412-bd3e-484b-87e7-cbc0a665e474, wbex
/COM,/COM,     ANSYSMotion, 2022.2
/COM,     20180725-3f81-49eb-9f31-41364844c769, wbex
/COM,
! ****** End   Custom Load Command Snippet ******
*DIM,_wb_ProjectScratch_dir,string,248
_wb_ProjectScratch_dir(1) = 'C:\Users\mrroc\AppData\Local\Temp\WB_mrroc_12512_2\_ProjectScratch\Scr59A6\'
*DIM,_wb_SolverFiles_dir,string,248
_wb_SolverFiles_dir(1) = 'C:\Users\mrroc\AppData\Local\Temp\WB_mrroc_12512_2\wbnew_files\dp0\SYS\MECH\'
*DIM,_wb_userfiles_dir,string,248
_wb_userfiles_dir(1) = 'C:\Users\mrroc\AppData\Local\Temp\WB_mrroc_12512_2\wbnew_files\user_files\'
/com,--- Data in consistent MKS units. See Solving Units in the help system for more information.
/units,MKS
/nopr
/wb,file,start              !  signify a WB generated input file
/prep7
! Turn off shape checking because checks already performed inside WB mesher.
! See help system for more information.
SHPP,OFF,,NOWARN
/nolist
etcon,set             ! allow ANSYS to choose best KEYOP's for 180x elements, resets any applicable keyopt to MAPDL defaults
/com,*********** Nodes for the whole assembly ***********
nblock,3,,3599
(1i9,3e20.9e3)
        1     2.316683436E-02    -1.159053426E-03     1.093061730E-02
        2     2.316683436E-02    -1.159053426E-03     1.000000000E-02
        3     2.316683436E-02    -1.159053426E-03     1.186123460E-02
        4     2.316683436E-02    -2.906479374E-03     1.000000000E-02
        5    -2.316683436E-02    -1.159053426E-03     1.186123460E-02
        6    -1.895468266E-02    -1.159053426E-03     1.186123460E-02
        7    -1.474253096E-02    -1.159053426E-03     1.186123460E-02
        8    -1.053037925E-02    -1.159053426E-03     1.186123460E-02
        9    -6.318227553E-03    -1.159053426E-03     1.186123460E-02
       10    -2.106075851E-03    -1.159053426E-03     1.186123460E-02
       11     2.106075851E-03    -1.159053426E-03     1.186123460E-02
       12     6.318227553E-03    -1.159053426E-03     1.186123460E-02
       13     1.053037925E-02    -1.159053426E-03     1.186123460E-02
       14     1.474253096E-02    -1.159053426E-03     1.186123460E-02
       15     1.895468266E-02    -1.159053426E-03     1.186123460E-02
       16    -2.316683436E-02    -2.906479374E-03     1.000000000E-02
       17    -1.895468266E-02    -2.906479374E-03     1.000000000E-02
       18    -1.474253096E-02    -2.906479374E-03     1.000000000E-02
       19    -1.053037925E-02    -2.906479374E-03     1.000000000E-02
       20    -6.318227553E-03    -2.906479374E-03     1.000000000E-02
! ... 3253 like lines cut
/wb,elem,start            !  set before creation of elements
/com,*********** Elements for Body 1 "weld_T-FreeParts" ***********
et,1,186
keyo,1,2,1          ! set full integration on SOLID186
eblock,19,solid,,336
(19i9)
        1        1        1        1        0        0        0        0       20        0      172     1212     1747     1773     1775     1497     1772     1774     1786
     1801     3202     3240     1802     2701     3238     3241     2702     1799     3201     3239     3243
        1        1        1        1        0        0        0        0       20        0      173     1212     1775     1773     1747     1498     1641     1665     1664
     1802     3240     3202     1801     2705     3014     3061     2706     1800     3015     3063     3062
        1        1        1        1        0        0        0        0       20        0      174     1212     1223     1748     1747     1497     1486     1771     1772
     1798     1857     3200     1801     2678     2679     3237     2701     1799     1855     3204     3201
        1        1        1        1        0        0        0        0       20        0      175     1212     1747     1748     1223     1498     1664     1663     1509
     1801     3200     1857     1798     2706     3059     2739     2704     1800     3062     3060     1856
        1        1        1        1        0        0        0        0       20        0      176     1223     1234     1749     1748     1486     1475     1770     1771
     1854     1902     3203     1857     2655     2656     3236     2679     1855     1900     3206     3204
        1        1        1        1        0        0        0        0       20        0      177     1223     1748     1749     1234     1509     1663     1662     1520
     1857     3203     1902     1854     2739     3057     2762     2738     1856     3060     3058     1901
        1        1        1        1        0        0        0        0       20        0      178     1234     1245     1750     1749     1475     1464     1769     1770
     1899     1947     3205     1902     2632     2633     3235     2656     1900     1945     3208     3206
        1        1        1        1        0        0        0        0       20        0      179     1234     1749     1750     1245     1520     1662     1661     1531
     1902     3205     1947     1899     2762     3055     2785     2761     1901     3058     3056     1946
        1        1        1        1        0        0        0        0       20        0      180     1245     1256     1751     1750     1464     1453     1768     1769
     1944     1992     3207     1947     2609     2610     3234     2633     1945     1990     3210     3208
        1        1        1        1        0        0        0        0       20        0      181     1245     1750     1751     1256     1531     1661     1660     1542
     1947     3207     1992     1944     2785     3053     2808     2784     1946     3056     3054     1991
! ... 653 like lines cut
!Material Id = {D50BE2BC-66F6-428B-B27B-434C1BE42E00}
/com,*********** Elements for Body 2 "weld_T-FreeParts[2]" ***********
et,2,186
keyo,2,2,1          ! set full integration on SOLID186
eblock,19,solid,,105
(19i9)
        2        2        2        2        0        0        0        0       20        0       23      236      402      396      394      237      332      333      334
      680      990      988      679      683      893      895      684      678      894      896      898
        2        2        2        2        0        0        0        0       20        0       24      230      236      394      393      243      237      334      335
      659      679      987      661      682      684      897      702      660      678      898      900
        2        2        2        2        0        0        0        0       20        0       25      224      230      393      392      249      243      335      336
      640      661      986      642      701      702      899      715      641      660      900      902
        2        2        2        2        0        0        0        0       20        0       26      218      224      392      391      255      249      336      337
      621      642      985      623      714      715      901      728      622      641      902      904
        2        2        2        2        0        0        0        0       20        0       27      212      218      391      390      261      255      337      338
      602      623      984      604      727      728      903      741      603      622      904      906
        2        2        2        2        0        0        0        0       20        0       28      206      212      390      389      267      261      338      339
      583      604      983      585      740      741      905      754      584      603      906      908
        2        2        2        2        0        0        0        0       20        0       29      200      206      389      388      273      267      339      340
      564      585      982      566      753      754      907      767      565      584      908      910
        2        2        2        2        0        0        0        0       20        0       30      194      200      388      387      279      273      340      341
      545      566      981      547      766      767      909      780      546      565      910      912
        2        2        2        2        0        0        0        0       20        0       31      188      194      387      386      285      279      341      342
      526      547      980      528      779      780      911      793      527      546      912      914
        2        2        2        2        0        0        0        0       20        0       32      182      188      386      385      291      285      342      343
      507      528      979      509      792      793      913      806      508      527      914      916
! ... 191 like lines cut
!Material Id = {FED6E1FC-9F80-467B-8C17-BB3F61FAE373}
/com,*********** Elements for Body 3 "weld_T-FreeParts[3]" ***********
et,3,186
keyo,3,2,1          ! set full integration on SOLID186
eblock,19,solid,,44
(19i9)
        3        3        3        3        0        0        0        0       20        0      128     1001     1059     1040     1040     1011     1060     1039     1039
     1066     1184     1040     1065     1115     1182     1039     1114     1062     1211     1181     1181
        3        3        3        3        0        0        0        0       20        0      129     1001     1040     1059     1059     1002     1041     1058     1058
     1065     1184     1059     1066     1070     1186     1058     1071     1061     1183     1210     1210
        3        3        3        3        0        0        0        0       20        0      130     1002     1041     1058     1058     1003     1042     1057     1057
     1070     1186     1058     1071     1075     1188     1057     1076     1067     1185     1209     1209
        3        3        3        3        0        0        0        0       20        0      131     1003     1042     1057     1057     1004     1043     1056     1056
     1075     1188     1057     1076     1080     1190     1056     1081     1072     1187     1208     1208
        3        3        3        3        0        0        0        0       20        0      132     1004     1043     1056     1056     1005     1044     1055     1055
     1080     1190     1056     1081     1085     1192     1055     1086     1077     1189     1207     1207
        3        3        3        3        0        0        0        0       20        0      133     1005     1044     1055     1055     1006     1045     1054     1054
     1085     1192     1055     1086     1090     1194     1054     1091     1082     1191     1206     1206
        3        3        3        3        0        0        0        0       20        0      134     1006     1045     1054     1054     1007     1046     1053     1053
     1090     1194     1054     1091     1095     1196     1053     1096     1087     1193     1205     1205
        3        3        3        3        0        0        0        0       20        0      135     1007     1046     1053     1053     1008     1047     1052     1052
     1095     1196     1053     1096     1100     1198     1052     1101     1092     1195     1204     1204
        3        3        3        3        0        0        0        0       20        0      136     1008     1047     1052     1052     1009     1048     1051     1051
     1100     1198     1052     1101     1105     1200     1051     1106     1097     1197     1203     1203
        3        3        3        3        0        0        0        0       20        0      137     1009     1048     1051     1051     1010     1049     1050     1050
     1105     1200     1051     1106     1110     1201     1050     1111     1102     1199     1202     1202
! ... 69 like lines cut
!Material Id = {61A8F3DA-FEC0-42A2-A58E-F80C03EC5BA7}
/com,*********** Elements for Body 4 "weld_T-FreeParts[4]" ***********
et,4,186
keyo,4,2,1          ! set full integration on SOLID186
eblock,19,solid,,22
(19i9)
        4        4        4        4        0        0        0        0       20        0        1       16       27       48       48       17       28       47       47
       91      123       48       92       94      125       47       95       90      122      152      152
        4        4        4        4        0        0        0        0       20        0        2       17       28       47       47       18       29       46       46
       94      125       47       95       97      127       46       98       93      124      151      151
        4        4        4        4        0        0        0        0       20        0        3       18       29       46       46       19       30       45       45
       97      127       46       98      100      129       45      101       96      126      150      150
        4        4        4        4        0        0        0        0       20        0        4       19       30       45       45       20       31       44       44
      100      129       45      101      103      131       44      104       99      128      149      149
        4        4        4        4        0        0        0        0       20        0        5       20       31       44       44       21       32       43       43
      103      131       44      104      106      133       43      107      102      130      148      148
        4        4        4        4        0        0        0        0       20        0        6       21       32       43       43       22       33       42       42
      106      133       43      107      109      135       42      110      105      132      147      147
        4        4        4        4        0        0        0        0       20        0        7       22       33       42       42       23       34       41       41
      109      135       42      110      112      137       41      113      108      134      146      146
        4        4        4        4        0        0        0        0       20        0        8       23       34       41       41       24       35       40       40
      112      137       41      113      115      139       40      116      111      136      145      145
        4        4        4        4        0        0        0        0       20        0        9       24       35       40       40       25       36       39       39
      115      139       40      116      118      141       39      119      114      138      144      144
        4        4        4        4        0        0        0        0       20        0       10       25       36       39       39       26       37       38       38
      118      141       39      119      120      142       38      121      117      140      143      143
! ... 25 like lines cut
!Material Id = {B9D58F80-197C-494E-A86E-597B72AED470}
/wb,elem,end               !  done creating elements
/com,*********** Send User Defined Coordinate System(s) ***********
csys,0
toffst,273.15,  ! Temperature offset from absolute zero
/com,*********** Set Reference Temperature ***********
tref,22.
/wb,mat,start              !  starting to send materials
/com,*********** Send Materials ***********
Temperature = 'TEMP' ! Temperature
MP,DENS,1,7850,	! kg m^-3
MP,ALPX,1,1.2e-05,	! C^-1
MP,C,1,434,	! J kg^-1 C^-1
MP,KXX,1,60.5,	! W m^-1 C^-1
MP,RSVX,1,1.7e-07,	! kg m^3 A^-2 s^-3
MP,EX,1,200000000000,	! Pa
MP,NUXY,1,0.3,
MP,MURX,1,10000,
MP,UVID,1,0a915dca-cd89-4453-b1f7-472c29a79037
MP,UMID,1,59002a79-71c2-428e-906b-55d7dbee100e

Temperature = 'TEMP' ! Temperature
MP,DENS,2,7850,	! kg m^-3
MP,ALPX,2,1.2e-05,	! C^-1
MP,C,2,434,	! J kg^-1 C^-1
MP,KXX,2,60.5,	! W m^-1 C^-1
MP,RSVX,2,1.7e-07,	! kg m^3 A^-2 s^-3
MP,EX,2,200000000000,	! Pa
MP,NUXY,2,0.3,
MP,MURX,2,10000,
MP,UVID,2,0a915dca-cd89-4453-b1f7-472c29a79037
MP,UMID,2,59002a79-71c2-428e-906b-55d7dbee100e

Temperature = 'TEMP' ! Temperature
MP,DENS,3,7850,	! kg m^-3
MP,ALPX,3,1.2e-05,	! C^-1
MP,C,3,434,	! J kg^-1 C^-1
MP,KXX,3,60.5,	! W m^-1 C^-1
MP,RSVX,3,1.7e-07,	! kg m^3 A^-2 s^-3
MP,EX,3,200000000000,	! Pa
MP,NUXY,3,0.3,
MP,MURX,3,10000,
MP,UVID,3,0a915dca-cd89-4453-b1f7-472c29a79037
MP,UMID,3,59002a79-71c2-428e-906b-55d7dbee100e

Temperature = 'TEMP' ! Temperature
MP,DENS,4,7850,	! kg m^-3
MP,ALPX,4,1.2e-05,	! C^-1
MP,C,4,434,	! J kg^-1 C^-1
MP,KXX,4,60.5,	! W m^-1 C^-1
MP,RSVX,4,1.7e-07,	! kg m^3 A^-2 s^-3
MP,EX,4,200000000000,	! Pa
MP,NUXY,4,0.3,
MP,MURX,4,10000,
MP,UVID,4,0a915dca-cd89-4453-b1f7-472c29a79037
MP,UMID,4,59002a79-71c2-428e-906b-55d7dbee100e

/wb,mat,end                !  done sending materials
!************************* Model Summary ********************
!weld_T-FreeParts,	Structural Steel,	matid,	1
!weld_T-FreeParts[2],	Structural Steel,	matid,	2
!weld_T-FreeParts[3],	Structural Steel,	matid,	3
!weld_T-FreeParts[4],	Structural Steel,	matid,	4
!************************* End Model Summary ********************
! get the diagonal of the bounding box. Needed later for other things
*get,_xmin,node,,mnloc,x
*get,_ymin,node,,mnloc,y
*get,_zmin,node,,mnloc,z
*get,_xmax,node,,mxloc,x
*get,_ymax,node,,mxloc,y
*get,_zmax,node,,mxloc,z
_ASMDIAG=(_xmax-_xmin)*(_xmax-_xmin)+(_ymax-_ymin)*(_ymax-_ymin)+(_zmax-_zmin)*(_zmax-_zmin)
_ASMDIAG=SQRT(_ASMDIAG)
/wb,contact,start          !  starting to send contact
/com,*********** Create Contact "Frictionless - weld_T-FreeParts To weld_T-FreeParts[2]" ***********
/com,            Real Constant Set For Above Contact Is 6 & 5 
*set,tid,6
*set,cid,5
r,tid
r,cid
et,tid,170
et,cid,174
eblock,10,,,16
(15i9)
     1302        6        6        6        0     1565     1566     1555     1554     2855     2835     2832     2833
     1303        6        6        6        0     1576     1577     1566     1565     2878     2858     2855     2856
     1304        6        6        6        0     1566     1567     1556     1555     2857     2837     2834     2835
     1305        6        6        6        0     1577     1578     1567     1566     2880     2860     2857     2858
     1306        6        6        6        0     1567     1568     1557     1556     2859     2839     2836     2837
     1307        6        6        6        0     1578     1579     1568     1567     2882     2862     2859     2860
     1308        6        6        6        0     1568     1569     1558     1557     2861     2841     2838     2839
     1309        6        6        6        0     1579     1580     1569     1568     2884     2864     2861     2862
     1310        6        6        6        0     1569     1570     1559     1558     2863     2843     2840     2841
     1311        6        6        6        0     1580     1581     1570     1569     2886     2866     2863     2864
     1312        6        6        6        0     1570     1571     1560     1559     2865     2845     2842     2843
     1313        6        6        6        0     1581     1582     1571     1570     2888     2868     2865     2866
     1314        6        6        6        0     1571     1572     1561     1560     2867     2847     2844     2845
     1315        6        6        6        0     1582     1583     1572     1571     2890     2870     2867     2868
     1316        6        6        6        0     1572     1573     1562     1561     2869     2849     2846     2847
     1317        6        6        6        0     1583     1584     1573     1572     2892     2872     2869     2870
-1
eblock,10,,,16
(15i9)
     1318        5        5        5        0     1565     1566     1555     1554     2855     2835     2832     2833
     1319        5        5        5        0     1576     1577     1566     1565     2878     2858     2855     2856
     1320        5        5        5        0     1566     1567     1556     1555     2857     2837     2834     2835
     1321        5        5        5        0     1577     1578     1567     1566     2880     2860     2857     2858
     1322        5        5        5        0     1567     1568     1557     1556     2859     2839     2836     2837
     1323        5        5        5        0     1578     1579     1568     1567     2882     2862     2859     2860
     1324        5        5        5        0     1568     1569     1558     1557     2861     2841     2838     2839
     1325        5        5        5        0     1579     1580     1569     1568     2884     2864     2861     2862
     1326        5        5        5        0     1569     1570     1559     1558     2863     2843     2840     2841
     1327        5        5        5        0     1580     1581     1570     1569     2886     2866     2863     2864
     1328        5        5        5        0     1570     1571     1560     1559     2865     2845     2842     2843
     1329        5        5        5        0     1581     1582     1571     1570     2888     2868     2865     2866
     1330        5        5        5        0     1571     1572     1561     1560     2867     2847     2844     2845
     1331        5        5        5        0     1582     1583     1572     1571     2890     2870     2867     2868
     1332        5        5        5        0     1572     1573     1562     1561     2869     2849     2846     2847
     1333        5        5        5        0     1583     1584     1573     1572     2892     2872     2869     2870
-1
eblock,10,,,7
(15i9)
     1334        5        6        5        0      395      403      321      348      989      871      870      925
     1335        5        6        5        0      403      404      322      321      996      873      869      871
     1336        5        6        5        0      404      405      323      322      997      875      872      873
     1337        5        6        5        0      405      406      324      323      998      877      874      875
     1338        5        6        5        0      406      407      325      324      999      879      876      877
     1339        5        6        5        0      407      408      326      325     1000      881      878      879
     1340        5        6        5        0      408      379      364      326      972      956      880      881
-1
eblock,10,,,7
(15i9)
     1341        6        5        6        0      395      403      321      348      989      871      870      925
     1342        6        5        6        0      403      404      322      321      996      873      869      871
     1343        6        5        6        0      404      405      323      322      997      875      872      873
     1344        6        5        6        0      405      406      324      323      998      877      874      875
     1345        6        5        6        0      406      407      325      324      999      879      876      877
     1346        6        5        6        0      407      408      326      325     1000      881      878      879
     1347        6        5        6        0      408      379      364      326      972      956      880      881
-1
keyo,cid,8,2               ! auto create asymmetric contact (from Program Controlled setting)
keyo,cid,10,0              ! adjust contact stiffness each NR iteration (from Program Controlled setting)
keyo,cid,12,0              ! standard contact
keyo,cid,18,1              ! small sliding turned on by application
keyo,cid,2,0               ! augmented Lagrange (from Program Controlled setting)
keyo,cid,4,0               ! on Gauss point (from Program Controlled setting)
keyo,cid,9,0               ! use real geometry with stepped effects
keyo,cid,7,0               ! No Prediction
rmod,tid,3,1.       ! FKN
rmod,tid,5,0.       ! ICONT
rmod,tid,6,0.       ! PINB
rmod,tid,10,0.      ! CNOF
rmod,tid,12,0.      ! FKT
rmod,tid,36,35      ! WB DSID
rmod,cid,3,1.       ! FKN
rmod,cid,5,0.       ! ICONT
rmod,cid,6,0.       ! PINB
rmod,cid,10,0.      ! CNOF
rmod,cid,12,0.      ! FKT
rmod,cid,36,35      ! WB DSID
/com,*********** Create Contact "Contact Region 2" ***********
/com,            Real Constant Set For Above Contact Is 8 & 7 
*set,tid,8
*set,cid,7
r,tid
r,cid
et,tid,170
et,cid,174
eblock,10,,,8
(15i9)
     1348        8        8        8        0     1565     1566     1555     1554     2855     2835     2832     2833
     1349        8        8        8        0     1566     1567     1556     1555     2857     2837     2834     2835
     1350        8        8        8        0     1567     1568     1557     1556     2859     2839     2836     2837
     1351        8        8        8        0     1568     1569     1558     1557     2861     2841     2838     2839
     1352        8        8        8        0     1569     1570     1559     1558     2863     2843     2840     2841
     1353        8        8        8        0     1570     1571     1560     1559     2865     2845     2842     2843
     1354        8        8        8        0     1571     1572     1561     1560     2867     2847     2844     2845
     1355        8        8        8        0     1572     1573     1562     1561     2869     2849     2846     2847
-1
eblock,10,,,8
(15i9)
     1356        7        7        7        0     1565     1566     1555     1554     2855     2835     2832     2833
     1357        7        7        7        0     1566     1567     1556     1555     2857     2837     2834     2835
     1358        7        7        7        0     1567     1568     1557     1556     2859     2839     2836     2837
     1359        7        7        7        0     1568     1569     1558     1557     2861     2841     2838     2839
     1360        7        7        7        0     1569     1570     1559     1558     2863     2843     2840     2841
     1361        7        7        7        0     1570     1571     1560     1559     2865     2845     2842     2843
     1362        7        7        7        0     1571     1572     1561     1560     2867     2847     2844     2845
     1363        7        7        7        0     1572     1573     1562     1561     2869     2849     2846     2847
-1
eblock,10,,,11
(15i9)
     1364        7        8        7        0     1016     1027     1038     1015     1127     1158     1126     1125
     1365        7        8        7        0     1027     1026     1037     1038     1155     1156     1178     1158
     1366        7        8        7        0     1026     1025     1036     1037     1152     1153     1176     1156
     1367        7        8        7        0     1025     1024     1035     1036     1149     1150     1174     1153
     1368        7        8        7        0     1024     1023     1034     1035     1146     1147     1172     1150
     1369        7        8        7        0     1023     1022     1033     1034     1143     1144     1170     1147
     1370        7        8        7        0     1022     1021     1032     1033     1140     1141     1168     1144
     1371        7        8        7        0     1021     1020     1031     1032     1137     1138     1166     1141
     1372        7        8        7        0     1020     1019     1030     1031     1134     1135     1164     1138
     1373        7        8        7        0     1019     1018     1029     1030     1131     1132     1162     1135
     1374        7        8        7        0     1018     1017     1028     1029     1128     1129     1160     1132
-1
eblock,10,,,11
(15i9)
     1375        8        7        8        0     1016     1027     1038     1015     1127     1158     1126     1125
     1376        8        7        8        0     1027     1026     1037     1038     1155     1156     1178     1158
     1377        8        7        8        0     1026     1025     1036     1037     1152     1153     1176     1156
     1378        8        7        8        0     1025     1024     1035     1036     1149     1150     1174     1153
     1379        8        7        8        0     1024     1023     1034     1035     1146     1147     1172     1150
     1380        8        7        8        0     1023     1022     1033     1034     1143     1144     1170     1147
     1381        8        7        8        0     1022     1021     1032     1033     1140     1141     1168     1144
     1382        8        7        8        0     1021     1020     1031     1032     1137     1138     1166     1141
     1383        8        7        8        0     1020     1019     1030     1031     1134     1135     1164     1138
     1384        8        7        8        0     1019     1018     1029     1030     1131     1132     1162     1135
     1385        8        7        8        0     1018     1017     1028     1029     1128     1129     1160     1132
-1
keyo,cid,8,2               ! auto create asymmetric contact (from Program Controlled setting)
keyo,cid,10,0              ! adjust contact stiffness each NR iteration (from Program Controlled setting)
keyo,cid,12,5              ! bonded always
keyo,cid,18,1              ! small sliding turned on by application
keyo,cid,2,0               ! augmented Lagrange (from Program Controlled setting)
keyo,cid,4,0               ! on Gauss point (from Program Controlled setting)
keyo,cid,9,1               ! ignore initial gaps/penetration
keyo,cid,7,0               ! No Prediction
rmod,tid,3,1.       ! FKN
rmod,tid,5,0.       ! ICONT
rmod,tid,6,0.       ! PINB
rmod,tid,10,0.      ! CNOF
rmod,tid,12,0.      ! FKT
rmod,tid,36,38      ! WB DSID
rmod,cid,3,1.       ! FKN
rmod,cid,5,0.       ! ICONT
rmod,cid,6,0.       ! PINB
rmod,cid,10,0.      ! CNOF
rmod,cid,12,0.      ! FKT
rmod,cid,36,38      ! WB DSID
/com,*********** Create Contact "Contact Region 3" ***********
/com,            Real Constant Set For Above Contact Is 10 & 9 
*set,tid,10
*set,cid,9
r,tid
r,cid
et,tid,170
et,cid,174
eblock,10,,,8
(15i9)
     1386       10       10       10        0     1576     1577     1566     1565     2878     2858     2855     2856
     1387       10       10       10        0     1577     1578     1567     1566     2880     2860     2857     2858
     1388       10       10       10        0     1578     1579     1568     1567     2882     2862     2859     2860
     1389       10       10       10        0     1579     1580     1569     1568     2884     2864     2861     2862
     1390       10       10       10        0     1580     1581     1570     1569     2886     2866     2863     2864
     1391       10       10       10        0     1581     1582     1571     1570     2888     2868     2865     2866
     1392       10       10       10        0     1582     1583     1572     1571     2890     2870     2867     2868
     1393       10       10       10        0     1583     1584     1573     1572     2892     2872     2869     2870
-1
eblock,10,,,8
(15i9)
     1394        9        9        9        0     1576     1577     1566     1565     2878     2858     2855     2856
     1395        9        9        9        0     1577     1578     1567     1566     2880     2860     2857     2858
     1396        9        9        9        0     1578     1579     1568     1567     2882     2862     2859     2860
     1397        9        9        9        0     1579     1580     1569     1568     2884     2864     2861     2862
     1398        9        9        9        0     1580     1581     1570     1569     2886     2866     2863     2864
     1399        9        9        9        0     1581     1582     1571     1570     2888     2868     2865     2866
     1400        9        9        9        0     1582     1583     1572     1571     2890     2870     2867     2868
     1401        9        9        9        0     1583     1584     1573     1572     2892     2872     2869     2870
-1
eblock,10,,,11
(15i9)
     1402        9       10        9        0       28       17       16       27       94       90       91      122
     1403        9       10        9        0       29       18       17       28       97       93       94      124
     1404        9       10        9        0       30       19       18       29      100       96       97      126
     1405        9       10        9        0       31       20       19       30      103       99      100      128
     1406        9       10        9        0       32       21       20       31      106      102      103      130
     1407        9       10        9        0       33       22       21       32      109      105      106      132
     1408        9       10        9        0       34       23       22       33      112      108      109      134
     1409        9       10        9        0       35       24       23       34      115      111      112      136
     1410        9       10        9        0       36       25       24       35      118      114      115      138
     1411        9       10        9        0       37       26       25       36      120      117      118      140
     1412        9       10        9        0        2        4       26       37       53       57      120       54
-1
eblock,10,,,11
(15i9)
     1413       10        9       10        0       28       17       16       27       94       90       91      122
     1414       10        9       10        0       29       18       17       28       97       93       94      124
     1415       10        9       10        0       30       19       18       29      100       96       97      126
     1416       10        9       10        0       31       20       19       30      103       99      100      128
     1417       10        9       10        0       32       21       20       31      106      102      103      130
     1418       10        9       10        0       33       22       21       32      109      105      106      132
     1419       10        9       10        0       34       23       22       33      112      108      109      134
     1420       10        9       10        0       35       24       23       34      115      111      112      136
     1421       10        9       10        0       36       25       24       35      118      114      115      138
     1422       10        9       10        0       37       26       25       36      120      117      118      140
     1423       10        9       10        0        2        4       26       37       53       57      120       54
-1
keyo,cid,8,2               ! auto create asymmetric contact (from Program Controlled setting)
keyo,cid,10,0              ! adjust contact stiffness each NR iteration (from Program Controlled setting)
keyo,cid,12,5              ! bonded always
keyo,cid,18,1              ! small sliding turned on by application
keyo,cid,2,0               ! augmented Lagrange (from Program Controlled setting)
keyo,cid,4,0               ! on Gauss point (from Program Controlled setting)
keyo,cid,9,1               ! ignore initial gaps/penetration
keyo,cid,7,0               ! No Prediction
rmod,tid,3,1.       ! FKN
rmod,tid,5,0.       ! ICONT
rmod,tid,6,0.       ! PINB
rmod,tid,10,0.      ! CNOF
rmod,tid,12,0.      ! FKT
rmod,tid,36,41      ! WB DSID
rmod,cid,3,1.       ! FKN
rmod,cid,5,0.       ! ICONT
rmod,cid,6,0.       ! PINB
rmod,cid,10,0.      ! CNOF
rmod,cid,12,0.      ! FKT
rmod,cid,36,41      ! WB DSID
/com,*********** Create Contact "Contact Region 4" ***********
/com,            Real Constant Set For Above Contact Is 12 & 11 
*set,tid,12
*set,cid,11
r,tid
r,cid
et,tid,170
et,cid,174
eblock,10,,,7
(15i9)
     1424       12       12       12        0      158      403      395      381      433      989      975      432
     1425       12       12       12        0      157      404      403      158      429      996      433      426
     1426       12       12       12        0      156      405      404      157      425      997      429      422
     1427       12       12       12        0      155      406      405      156      421      998      425      418
     1428       12       12       12        0      154      407      406      155      417      999      421      414
     1429       12       12       12        0      153      408      407      154      413     1000      417      409
     1430       12       12       12        0      365      379      408      153      958      972      413      412
-1
eblock,10,,,7
(15i9)
     1431       11       11       11        0      158      403      395      381      433      989      975      432
     1432       11       11       11        0      157      404      403      158      429      996      433      426
     1433       11       11       11        0      156      405      404      157      425      997      429      422
     1434       11       11       11        0      155      406      405      156      421      998      425      418
     1435       11       11       11        0      154      407      406      155      417      999      421      414
     1436       11       11       11        0      153      408      407      154      413     1000      417      409
     1437       11       11       11        0      365      379      408      153      958      972      413      412
-1
eblock,10,,,22
(15i9)
     1438       11       12       11        0     1049     1050     1013     1014     1201     1122     1120     1124
     1439       11       12       11        0     1048     1051     1050     1049     1200     1202     1201     1199
     1440       11       12       11        0     1047     1052     1051     1048     1198     1203     1200     1197
     1441       11       12       11        0     1046     1053     1052     1047     1196     1204     1198     1195
     1442       11       12       11        0     1045     1054     1053     1046     1194     1205     1196     1193
     1443       11       12       11        0     1044     1055     1054     1045     1192     1206     1194     1191
     1444       11       12       11        0     1043     1056     1055     1044     1190     1207     1192     1189
     1445       11       12       11        0     1042     1057     1056     1043     1188     1208     1190     1187
     1446       11       12       11        0     1041     1058     1057     1042     1186     1209     1188     1185
     1447       11       12       11        0     1040     1059     1058     1041     1184     1210     1186     1183
     1448       11       12       11        0     1039     1060     1059     1040     1182     1211     1184     1181
     1449       11       12       11        0     1050     1027     1016     1013     1159     1127     1121     1122
     1450       11       12       11        0     1051     1026     1027     1050     1157     1155     1159     1202
     1451       11       12       11        0     1052     1025     1026     1051     1154     1152     1157     1203
     1452       11       12       11        0     1053     1024     1025     1052     1151     1149     1154     1204
     1453       11       12       11        0     1054     1023     1024     1053     1148     1146     1151     1205
     1454       11       12       11        0     1055     1022     1023     1054     1145     1143     1148     1206
     1455       11       12       11        0     1056     1021     1022     1055     1142     1140     1145     1207
     1456       11       12       11        0     1057     1020     1021     1056     1139     1137     1142     1208
     1457       11       12       11        0     1058     1019     1020     1057     1136     1134     1139     1209
     1458       11       12       11        0     1059     1018     1019     1058     1133     1131     1136     1210
     1459       11       12       11        0     1060     1017     1018     1059     1130     1128     1133     1211
-1
eblock,10,,,22
(15i9)
     1460       12       11       12        0     1049     1050     1013     1014     1201     1122     1120     1124
     1461       12       11       12        0     1048     1051     1050     1049     1200     1202     1201     1199
     1462       12       11       12        0     1047     1052     1051     1048     1198     1203     1200     1197
     1463       12       11       12        0     1046     1053     1052     1047     1196     1204     1198     1195
     1464       12       11       12        0     1045     1054     1053     1046     1194     1205     1196     1193
     1465       12       11       12        0     1044     1055     1054     1045     1192     1206     1194     1191
     1466       12       11       12        0     1043     1056     1055     1044     1190     1207     1192     1189
     1467       12       11       12        0     1042     1057     1056     1043     1188     1208     1190     1187
     1468       12       11       12        0     1041     1058     1057     1042     1186     1209     1188     1185
     1469       12       11       12        0     1040     1059     1058     1041     1184     1210     1186     1183
     1470       12       11       12        0     1039     1060     1059     1040     1182     1211     1184     1181
     1471       12       11       12        0     1050     1027     1016     1013     1159     1127     1121     1122
     1472       12       11       12        0     1051     1026     1027     1050     1157     1155     1159     1202
     1473       12       11       12        0     1052     1025     1026     1051     1154     1152     1157     1203
     1474       12       11       12        0     1053     1024     1025     1052     1151     1149     1154     1204
     1475       12       11       12        0     1054     1023     1024     1053     1148     1146     1151     1205
     1476       12       11       12        0     1055     1022     1023     1054     1145     1143     1148     1206
     1477       12       11       12        0     1056     1021     1022     1055     1142     1140     1145     1207
     1478       12       11       12        0     1057     1020     1021     1056     1139     1137     1142     1208
     1479       12       11       12        0     1058     1019     1020     1057     1136     1134     1139     1209
     1480       12       11       12        0     1059     1018     1019     1058     1133     1131     1136     1210
     1481       12       11       12        0     1060     1017     1018     1059     1130     1128     1133     1211
-1
keyo,cid,8,2               ! auto create asymmetric contact (from Program Controlled setting)
keyo,cid,10,0              ! adjust contact stiffness each NR iteration (from Program Controlled setting)
keyo,cid,12,5              ! bonded always
keyo,cid,18,1              ! small sliding turned on by application
keyo,cid,2,0               ! augmented Lagrange (from Program Controlled setting)
keyo,cid,4,0               ! on Gauss point (from Program Controlled setting)
keyo,cid,9,1               ! ignore initial gaps/penetration
keyo,cid,7,0               ! No Prediction
rmod,tid,3,1.       ! FKN
rmod,tid,5,0.       ! ICONT
rmod,tid,6,0.       ! PINB
rmod,tid,10,0.      ! CNOF
rmod,tid,12,0.      ! FKT
rmod,tid,36,44      ! WB DSID
rmod,cid,3,1.       ! FKN
rmod,cid,5,0.       ! ICONT
rmod,cid,6,0.       ! PINB
rmod,cid,10,0.      ! CNOF
rmod,cid,12,0.      ! FKT
rmod,cid,36,44      ! WB DSID
/com,*********** Create Contact "Contact Region 5" ***********
/com,            Real Constant Set For Above Contact Is 14 & 13 
*set,tid,14
*set,cid,13
r,tid
r,cid
et,tid,170
et,cid,174
eblock,10,,,7
(15i9)
     1482       14       14       14        0      348      321      315      347      870      857      858      923
     1483       14       14       14        0      321      322      316      315      869      860      856      857
     1484       14       14       14        0      322      323      317      316      872      862      859      860
     1485       14       14       14        0      323      324      318      317      874      864      861      862
     1486       14       14       14        0      324      325      319      318      876      866      863      864
     1487       14       14       14        0      325      326      320      319      878      867      865      866
     1488       14       14       14        0      326      364      363      320      880      954      868      867
-1
eblock,10,,,7
(15i9)
     1489       13       13       13        0      348      321      315      347      870      857      858      923
     1490       13       13       13        0      321      322      316      315      869      860      856      857
     1491       13       13       13        0      322      323      317      316      872      862      859      860
     1492       13       13       13        0      323      324      318      317      874      864      861      862
     1493       13       13       13        0      324      325      319      318      876      866      863      864
     1494       13       13       13        0      325      326      320      319      878      867      865      866
     1495       13       13       13        0      326      364      363      320      880      954      868      867
-1
eblock,10,,,22
(15i9)
     1496       13       14       13        0       37       38        1        2      142       52       49       54
     1497       13       14       13        0       36       39       38       37      141      143      142      140
     1498       13       14       13        0       35       40       39       36      139      144      141      138
     1499       13       14       13        0       34       41       40       35      137      145      139      136
     1500       13       14       13        0       33       42       41       34      135      146      137      134
     1501       13       14       13        0       32       43       42       33      133      147      135      132
     1502       13       14       13        0       31       44       43       32      131      148      133      130
     1503       13       14       13        0       30       45       44       31      129      149      131      128
     1504       13       14       13        0       29       46       45       30      127      150      129      126
     1505       13       14       13        0       28       47       46       29      125      151      127      124
     1506       13       14       13        0       27       48       47       28      123      152      125      122
     1507       13       14       13        0       38       15        3        1       89       56       50       52
     1508       13       14       13        0       39       14       15       38       87       85       89      143
     1509       13       14       13        0       40       13       14       39       84       82       87      144
     1510       13       14       13        0       41       12       13       40       81       79       84      145
     1511       13       14       13        0       42       11       12       41       78       76       81      146
     1512       13       14       13        0       43       10       11       42       75       73       78      147
     1513       13       14       13        0       44        9       10       43       72       70       75      148
     1514       13       14       13        0       45        8        9       44       69       67       72      149
     1515       13       14       13        0       46        7        8       45       66       64       69      150
     1516       13       14       13        0       47        6        7       46       63       61       66      151
     1517       13       14       13        0       48        5        6       47       60       58       63      152
-1
eblock,10,,,22
(15i9)
     1518       14       13       14        0       37       38        1        2      142       52       49       54
     1519       14       13       14        0       36       39       38       37      141      143      142      140
     1520       14       13       14        0       35       40       39       36      139      144      141      138
     1521       14       13       14        0       34       41       40       35      137      145      139      136
     1522       14       13       14        0       33       42       41       34      135      146      137      134
     1523       14       13       14        0       32       43       42       33      133      147      135      132
     1524       14       13       14        0       31       44       43       32      131      148      133      130
     1525       14       13       14        0       30       45       44       31      129      149      131      128
     1526       14       13       14        0       29       46       45       30      127      150      129      126
     1527       14       13       14        0       28       47       46       29      125      151      127      124
     1528       14       13       14        0       27       48       47       28      123      152      125      122
     1529       14       13       14        0       38       15        3        1       89       56       50       52
     1530       14       13       14        0       39       14       15       38       87       85       89      143
     1531       14       13       14        0       40       13       14       39       84       82       87      144
     1532       14       13       14        0       41       12       13       40       81       79       84      145
     1533       14       13       14        0       42       11       12       41       78       76       81      146
     1534       14       13       14        0       43       10       11       42       75       73       78      147
     1535       14       13       14        0       44        9       10       43       72       70       75      148
     1536       14       13       14        0       45        8        9       44       69       67       72      149
     1537       14       13       14        0       46        7        8       45       66       64       69      150
     1538       14       13       14        0       47        6        7       46       63       61       66      151
     1539       14       13       14        0       48        5        6       47       60       58       63      152
-1
keyo,cid,8,2               ! auto create asymmetric contact (from Program Controlled setting)
keyo,cid,10,0              ! adjust contact stiffness each NR iteration (from Program Controlled setting)
keyo,cid,12,5              ! bonded always
keyo,cid,18,1              ! small sliding turned on by application
keyo,cid,2,0               ! augmented Lagrange (from Program Controlled setting)
keyo,cid,4,0               ! on Gauss point (from Program Controlled setting)
keyo,cid,9,1               ! ignore initial gaps/penetration
keyo,cid,7,0               ! No Prediction
rmod,tid,3,1.       ! FKN
rmod,tid,5,0.       ! ICONT
rmod,tid,6,0.       ! PINB
rmod,tid,10,0.      ! CNOF
rmod,tid,12,0.      ! FKT
rmod,tid,36,47      ! WB DSID
rmod,cid,3,1.       ! FKN
rmod,cid,5,0.       ! ICONT
rmod,cid,6,0.       ! PINB
rmod,cid,10,0.      ! CNOF
rmod,cid,12,0.      ! FKT
rmod,cid,36,47      ! WB DSID
nsel,all
esel,all
/wb,contact,end            !  done creating contacts
/golist
/wb,load,start             !  starting to send loads
/com,******* Constant Zero Displacement X *******
CMBLOCK,_DISPZEROUX,NODE,      557
(8i10)
      1355      1356      1357      1358      1359      1360      1361      1362
      1363      1364      1365      1366      1367      1368      1369      1370
      1371      1372      1373      1374      1375      1376      1377      1378
      1379      1380      1381      1382      1383      1384      1385      1386
      1387      1388      1389      1390      1391      1392      1393      1394
      1395      1396      1397      1398      1399      1400      1401      1402
      1403      1404      1405      1406      1407      1408      1409      1410
      1411      1412      1413      1414      1415      1416      1417      1418
      1419      1420      1421      1422      1423      1424      1425      1426
      1427      1428      1429      1430      1431      1432      1433      1434
      1435      1436      1437      1438      1439      1440      1441      1442
      1443      1444      1445      1446      1447      1448      1449      1450
      1451      1452      1453      1454      1455      1456      1457      1458
      1459      1460      1461      1462      1463      1464      1465      1466
      1467      1468      1469      1470      1471      1472      1473      1474
      1475      1476      1477      1478      1479      1480      1481      1482
      1483      1484      1485      1486      1487      1488      1489      1490
      1491      1492      1493      1494      1495      1496      1497      1706
      1707      1708      1709      1710      1711      1712      1713      1714
      1715      1716      1717      1718      1720      1722      1734      1735
! ... 50 like lines cut
cmsel,s,_DISPZEROUX
d,all,ux,0
nsel,all
/com,******* Constant Zero Displacement Y *******
CMBLOCK,_DISPZEROUY,NODE,      557
(8i10)
      1355      1356      1357      1358      1359      1360      1361      1362
      1363      1364      1365      1366      1367      1368      1369      1370
      1371      1372      1373      1374      1375      1376      1377      1378
      1379      1380      1381      1382      1383      1384      1385      1386
      1387      1388      1389      1390      1391      1392      1393      1394
      1395      1396      1397      1398      1399      1400      1401      1402
      1403      1404      1405      1406      1407      1408      1409      1410
      1411      1412      1413      1414      1415      1416      1417      1418
      1419      1420      1421      1422      1423      1424      1425      1426
      1427      1428      1429      1430      1431      1432      1433      1434
      1435      1436      1437      1438      1439      1440      1441      1442
      1443      1444      1445      1446      1447      1448      1449      1450
      1451      1452      1453      1454      1455      1456      1457      1458
      1459      1460      1461      1462      1463      1464      1465      1466
      1467      1468      1469      1470      1471      1472      1473      1474
      1475      1476      1477      1478      1479      1480      1481      1482
      1483      1484      1485      1486      1487      1488      1489      1490
      1491      1492      1493      1494      1495      1496      1497      1706
      1707      1708      1709      1710      1711      1712      1713      1714
      1715      1716      1717      1718      1720      1722      1734      1735
! ... 50 like lines cut
cmsel,s,_DISPZEROUY
d,all,uy,0
nsel,all
/com,******* Constant Zero Displacement Z *******
CMBLOCK,_DISPZEROUZ,NODE,      557
(8i10)
      1355      1356      1357      1358      1359      1360      1361      1362
      1363      1364      1365      1366      1367      1368      1369      1370
      1371      1372      1373      1374      1375      1376      1377      1378
      1379      1380      1381      1382      1383      1384      1385      1386
      1387      1388      1389      1390      1391      1392      1393      1394
      1395      1396      1397      1398      1399      1400      1401      1402
      1403      1404      1405      1406      1407      1408      1409      1410
      1411      1412      1413      1414      1415      1416      1417      1418
      1419      1420      1421      1422      1423      1424      1425      1426
      1427      1428      1429      1430      1431      1432      1433      1434
      1435      1436      1437      1438      1439      1440      1441      1442
      1443      1444      1445      1446      1447      1448      1449      1450
      1451      1452      1453      1454      1455      1456      1457      1458
      1459      1460      1461      1462      1463      1464      1465      1466
      1467      1468      1469      1470      1471      1472      1473      1474
      1475      1476      1477      1478      1479      1480      1481      1482
      1483      1484      1485      1486      1487      1488      1489      1490
      1491      1492      1493      1494      1495      1496      1497      1706
      1707      1708      1709      1710      1711      1712      1713      1714
      1715      1716      1717      1718      1720      1722      1734      1735
! ... 50 like lines cut
cmsel,s,_DISPZEROUZ
d,all,uz,0
nsel,all
/com,*********** Define Force Using Surface Effect Elements ***********
local,12,0,0.,0.,0.,0.,0.,0.
csys,0
et,15,154
eblock,10,,,105
(15i9)
     1540       15       15       15       12      334      237      332      333      684      683      893      895
     1541       15       15       15       12      335      243      237      334      702      682      684      897
     1542       15       15       15       12      336      249      243      335      715      701      702      899
     1543       15       15       15       12      337      255      249      336      728      714      715      901
     1544       15       15       15       12      338      261      255      337      741      727      728      903
     1545       15       15       15       12      339      267      261      338      754      740      741      905
     1546       15       15       15       12      340      273      267      339      767      753      754      907
     1547       15       15       15       12      341      279      273      340      780      766      767      909
     1548       15       15       15       12      342      285      279      341      793      779      780      911
     1549       15       15       15       12      343      291      285      342      806      792      793      913
     1550       15       15       15       12      344      297      291      343      819      805      806      915
     1551       15       15       15       12      345      303      297      344      832      818      819      917
     1552       15       15       15       12      346      309      303      345      845      831      832      919
     1553       15       15       15       12      347      315      309      346      858      844      845      921
     1554       15       15       15       12      348      321      315      347      870      857      858      923
     1555       15       15       15       12      237      238      331      332      681      687      891      683
     1556       15       15       15       12      243      244      238      237      700      686      681      682
     1557       15       15       15       12      249      250      244      243      713      704      700      701
     1558       15       15       15       12      255      256      250      249      726      717      713      714
     1559       15       15       15       12      261      262      256      255      739      730      726      727
! ... 86 like lines cut
esel,s,type,,15
keyop,15,2,1                ! Apply load in local coordinate system
keyop,15,7,1                ! Use original area so load is constant in large deformation
esel,all
/gst,on,on
fini
*get,_numnode,node,0,count
*get,_numelem,elem,0,count
*get, _MAXELEMNUM, elem, 0, NUM, MAX
*get, _MAXNODENUM, node, 0, NUM, MAX
*get, _MAXELEMTYPE, etyp, 0, NUM, MAX
*get, _MAXREALCONST, rcon, 0, NUM, MAX
/go
/wb,load,end               !  done creating loads
/com,--- Number of total nodes = %_numnode%
/com,--- Number of contact elements = 343
/com,--- Number of spring elements = 0
/com,--- Number of bearing elements = 0
/com,--- Number of solid elements = 507
/com,--- Number of condensed parts = 0
/com,--- Number of total elements = %_numelem%
*get,_wallbsol,active,,time,wall
/com,****************************************************************************
/com,*************************    SOLUTION       ********************************
/com,****************************************************************************
/solu
antype,0                   ! static analysis
_thickRatio=  0     ! Ratio of thick parts in the model
eqsl,sparse,,,,,1
cntr,print,1               ! print out contact info and also make no initial contact an error
dmpoption,emat,no             ! Don't combine emat file for DANSYS
dmpoption,esav,no             ! Don't combine esav file for DANSYS
nldiag,cont,iter           ! print out contact info each equilibrium iteration
rescontrol,define,last,last,,dele	   ! Program Controlled
/com,****************************************************
/com,******************* SOLVE FOR LS 1 OF 1 ****************
esel,s,type,,15
nsle
sfe,all,1,pres,1,0.
sfe,all,2,pres,1,64747.7327591793
sfe,all,3,pres,1,0.
nsel,all
esel,all
/nopr
/gopr
autots,on                  ! Workbench Program Controlled automatic time stepping
nsub,1,10,1                ! due to presence of general nonlinear
time,1.
outres,erase
outres,all,none
outres,nsol,all,
outres,rsol,all
outres,eangl,all
outres,etmp,all
outres,veng,all
outres,strs,all,
outres,epel,all,
outres,eppl,all,
outres,cont,all,
! *********** WB SOLVE COMMAND ***********
! check interactive state
*get,ANSINTER_,active,,int
*if,ANSINTER_,ne,0,then
/eof
*endif
solve
/com *************** Write FE CONNECTORS ********* 
CEWRITE,file,ce,,INTE
/com,****************************************************
/com,*************** FINISHED SOLVE FOR LS 1 *************
*get,_wallasol,active,,time,wall
/nopr
*get,_numnode,node,0,count
*get,_numelem,elem,0,count
*get, _MAXELEMNUM, elem, 0, NUM, MAX
*get, _MAXNODENUM, node, 0, NUM, MAX,,,INTERNAL
*get, _MAXELEMTYPE, etyp, 0, NUM, MAX
*get, _MAXREALCONST, rcon, 0, NUM, MAX
*get,_NSOLTHREADS,active,0,ntfs
*get,_NSOLPROCESSES,active,0,npfs
/gopr
/post1
xmlo,ENCODING,ISO-8859-1
xmlo,parm
/xml,parm,xml
fini
/gopr
*get,_walldone,active,,time,wall
_preptime=(_wallbsol-_wallstrt)*3600
_solvtime=(_wallasol-_wallbsol)*3600
_posttime=(_walldone-_wallasol)*3600
_totaltim=(_walldone-_wallstrt)*3600
*get,_dlbratio,active,0,solu,dlbr
*get,_combtime,active,0,solu,comb
*get,_ssmode,active,0,solu,ssmm
*get,_ndofs,active,0,solu,ndof
*get,_sol_end_time,active,0,set,time
*if,_sol_end_time,eq,1.000000,then
/fclean				!clean distributed files
*endif
/com,--- Total number of nodes = %_numnode%
/com,--- Total number of elements = %_numelem%
/com,--- Element load balance ratio = %_dlbratio%
/com,--- Time to combine distributed files = %_combtime%
/com,--- Sparse memory mode = %_ssmode%
/com,--- Number of DOF = %_ndofs%
/wb,file,end               ! done with WB generated input
