/batch
/config,noeldb,1     ! force off writing results to database
*get,_wallstrt,active,,time,wall
! ANSYS input file written by Workbench version 2022 R2
! File used for geometry attach: D:\Thesis\PEC_columbus.iges
/title,PEC_fatigue--Transient (C5)
! ****** Begin Custom Load Command Snippet ******
/COM, ACT Extensions:
/COM,     LSDYNA, 2022.2
/COM,     5f463412-bd3e-484b-87e7-cbc0a665e474, wbex
/COM,/COM,     ANSYSMotion, 2022.2
/COM,     20180725-3f81-49eb-9f31-41364844c769, wbex
/COM,
! ****** End   Custom Load Command Snippet ******
*DIM,_wb_ProjectScratch_dir,string,248
_wb_ProjectScratch_dir(1) = 'D:\Personal Work\PEC fatigue\_ProjectScratch\ScrB03C\'
*DIM,_wb_SolverFiles_dir,string,248
_wb_SolverFiles_dir(1) = 'D:\Personal Work\PEC fatigue\PEC_fatigue_files\dp0\SYS-3\MECH\'
*DIM,_wb_userfiles_dir,string,248
_wb_userfiles_dir(1) = 'D:\Personal Work\PEC fatigue\PEC_fatigue_files\user_files\'
/com,--- Data in consistent MKS units. See Solving Units in the help system for more information.
/units,MKS
/nopr
/wb,file,start              !  signify a WB generated input file
/prep7
! Turn off shape checking because checks already performed inside WB mesher.
! See help system for more information.
SHPP,OFF,,NOWARN
/nolist
etcon,set             ! allow ANSYS to choose best KEYOP's for 180x elements, resets any applicable keyopt to MAPDL defaults
/com,*********** Nodes for the whole assembly ***********
nblock,3,,7525
(1i9,3e20.9e3)
        1    -5.000000000E-03     5.265232216E-02     2.198463431E-02
        2     5.000000000E-03     5.265232216E-02     2.198463431E-02
        3     0.000000000E+00     5.265232216E-02     2.198463431E-02
        4     5.000000000E-03     5.265232216E-02    -2.198463431E-02
        5     5.000000000E-03     5.265232216E-02    -1.570331022E-02
        6     5.000000000E-03     5.265232216E-02    -9.421986133E-03
        7     5.000000000E-03     5.265232216E-02    -3.140662044E-03
        8     5.000000000E-03     5.265232216E-02     3.140662044E-03
        9     5.000000000E-03     5.265232216E-02     9.421986133E-03
       10     5.000000000E-03     5.265232216E-02     1.570331022E-02
       11    -5.000000000E-03     5.265232216E-02    -2.198463431E-02
       12     0.000000000E+00     5.265232216E-02    -2.198463431E-02
       13    -5.000000000E-03     5.265232216E-02     1.570331022E-02
       14    -5.000000000E-03     5.265232216E-02     9.421986133E-03
       15    -5.000000000E-03     5.265232216E-02     3.140662044E-03
       16    -5.000000000E-03     5.265232216E-02    -3.140662044E-03
       17    -5.000000000E-03     5.265232216E-02    -9.421986133E-03
       18    -5.000000000E-03     5.265232216E-02    -1.570331022E-02
       19    -2.000000000E-03     5.265232216E-02    -4.500000000E-03
       20    -2.000000000E-03     5.265232216E-02     4.500000000E-03
! ... 6822 like lines cut
/com,*********** Nodes for all Remote Points ***********
nblock,3
(1i9,3e20.9e3)
     6842     0.000000000E+00     9.997424875E-02     8.306420641E-20
     6843     0.000000000E+00     9.997424875E-02     8.306420641E-20
-1
/wb,elem,start            !  set before creation of elements
/com,*********** Elements for Body 1 "PEC_columbus-FreeParts" ***********
et,1,187
eblock,19,solid,,1965
(19i9)
        1        1        1        1        0        0        0        0       10        0      533     2763     2930     3129     2989     5169     5966     5171     5170
     5961     6296
        1        1        1        1        0        0        0        0       10        0      534     2525     3008     2693     2722     4274     4977     4270     4271
     5055     4975
        1        1        1        1        0        0        0        0       10        0      535     2892     3085     3066     3133     5640     6601     5639     5641
     6698     6605
        1        1        1        1        0        0        0        0       10        0      536     2526     3118     2692     2723     4281     4974     4276     4277
     5057     4973
        1        1        1        1        0        0        0        0       10        0      537     2494     3118     2692     2526     4085     4974     4083     4081
     4281     4276
        1        1        1        1        0        0        0        0       10        0      538     2554     3151     2753     2762     4456     5143     4453     4454
     5168     5141
        1        1        1        1        0        0        0        0       10        0      539     2498     2719     3115     2696     4110     5048     4111     4109
     4984     4986
        1        1        1        1        0        0        0        0       10        0      540     2522     2695     3124     2720     4252     4983     4258     4254
     4982     5050
        1        1        1        1        0        0        0        0       10        0      541     2498     3124     2522     2695     4112     4258     4107     4108
     4983     4252
        1        1        1        1        0        0        0        0       10        0      542     2939     3152     3066     2943     6031     6606     6028     6025
     6058     6055
! ... 3911 like lines cut
!Material Id = {6D22E0B4-95B7-4C45-AEDB-D1A42595EAE1}
/com,*********** Elements for Body 2 "PEC_columbus-FreeParts[2]" ***********
et,2,187
eblock,19,solid,,191
(19i9)
        2        2        2        2        0        0        0        0       10        0        1       16       30       21       31      186      211      184      187
      250      212
        2        2        2        2        0        0        0        0       10        0        2       71       74       75       91      428      439      429      430
      441      445
        2        2        2        2        0        0        0        0       10        0        3       15       31       16       21      179      187      176      178
      212      184
        2        2        2        2        0        0        0        0       10        0        4       62       93       94      100      395      489      396      397
      490      492
        2        2        2        2        0        0        0        0       10        0        5       20       24       88       23      206      227      208      205
      222      223
        2        2        2        2        0        0        0        0       10        0        6       53       58       83       59      342      380      345      343
      374      384
        2        2        2        2        0        0        0        0       10        0        7       50      100       94       86      327      492      325      324
      478      476
        2        2        2        2        0        0        0        0       10        0        8       86       94       87      100      476      482      475      478
      492      483
        2        2        2        2        0        0        0        0       10        0        9       49       87       63      100      317      399      315      318
      483      402
        2        2        2        2        0        0        0        0       10        0       10       20       88       24       21      208      227      206      204
      215      210
! ... 363 like lines cut
!Material Id = {CF9D6D01-8E92-4E50-AEB1-5E145291B9BF}
/com,*********** Elements for Body 3 "PEC_columbus-FreeParts[3]" ***********
et,3,186
keyo,3,2,1          ! set full integration on SOLID186
eblock,19,solid,,341
(19i9)
        3        3        3        3        0        0        0        0       20        0      192      499      502      506      505      746      743      739      740
     1012     1025     1038     1013     1810     1801     1799     1804     1015     1027     1043     1040
        3        3        3        3        0        0        0        0       20        0      193      499      505      506      502      507      513      514      510
     1013     1038     1025     1012     1047     1066     1056     1046     1014     1039     1042     1026
        3        3        3        3        0        0        0        0       20        0      194      507      513      514      510      515      521      522      518
     1047     1066     1056     1046     1073     1092     1082     1072     1048     1067     1069     1057
        3        3        3        3        0        0        0        0       20        0      195      515      521      522      518      523      529      530      526
     1073     1092     1082     1072     1099     1118     1108     1098     1074     1093     1095     1083
        3        3        3        3        0        0        0        0       20        0      196      523      529      530      526      531      537      538      534
     1099     1118     1108     1098     1125     1144     1134     1124     1100     1119     1121     1109
        3        3        3        3        0        0        0        0       20        0      197      531      537      538      534      539      545      546      542
     1125     1144     1134     1124     1151     1170     1160     1150     1126     1145     1147     1135
        3        3        3        3        0        0        0        0       20        0      198      539      545      546      542      547      553      554      550
     1151     1170     1160     1150     1177     1196     1186     1176     1152     1171     1173     1161
        3        3        3        3        0        0        0        0       20        0      199      547      553      554      550      555      561      562      558
     1177     1196     1186     1176     1203     1222     1212     1202     1178     1197     1199     1187
        3        3        3        3        0        0        0        0       20        0      200      555      561      562      558      563      569      570      566
     1203     1222     1212     1202     1229     1248     1238     1228     1204     1223     1225     1213
        3        3        3        3        0        0        0        0       20        0      201      563      569      570      566      571      577      578      574
     1229     1248     1238     1228     1255     1274     1264     1254     1230     1249     1251     1239
! ... 663 like lines cut
!Material Id = {D3C524EF-83D2-4AD4-9432-EF8B51BF1E84}
/wb,elem,end               !  done creating elements
/com,*********** Send User Defined Coordinate System(s) ***********
local,12,0,0.,9.99742487507333e-002,8.30642064063864e-020,-4.2964952914991e-031,7.01670929853488e-015,90.
csys,0
toffst,273.15,  ! Temperature offset from absolute zero
/com,*********** Set Reference Temperature ***********
tref,22.
/wb,mat,start              !  starting to send materials
/com,*********** Send Materials ***********
Temperature = 'TEMP' ! Temperature
MP,DENS,1,7850,	! kg m^-3
MP,ALPX,1,1.2e-05,	! C^-1
MP,C,1,434,	! J kg^-1 C^-1
MP,KXX,1,60.5,	! W m^-1 C^-1
MP,RSVX,1,1.7e-07,	! kg m^3 A^-2 s^-3
MP,EX,1,200000000000,	! Pa
MP,NUXY,1,0.3,
MP,MURX,1,10000,
MP,UVID,1,c7168412-0c96-4684-bbc2-4aaef53a4912
MP,UMID,1,59002a79-71c2-428e-906b-55d7dbee100e

Temperature = 'TEMP' ! Temperature
MP,DENS,2,7850,	! kg m^-3
MP,ALPX,2,1.2e-05,	! C^-1
MP,C,2,434,	! J kg^-1 C^-1
MP,KXX,2,60.5,	! W m^-1 C^-1
MP,RSVX,2,1.7e-07,	! kg m^3 A^-2 s^-3
MP,EX,2,200000000000,	! Pa
MP,NUXY,2,0.3,
MP,MURX,2,10000,
MP,UVID,2,c7168412-0c96-4684-bbc2-4aaef53a4912
MP,UMID,2,59002a79-71c2-428e-906b-55d7dbee100e

Temperature = 'TEMP' ! Temperature
MP,DENS,3,7850,	! kg m^-3
MP,ALPX,3,1.2e-05,	! C^-1
MP,C,3,434,	! J kg^-1 C^-1
MP,KXX,3,60.5,	! W m^-1 C^-1
MP,RSVX,3,1.7e-07,	! kg m^3 A^-2 s^-3
MP,EX,3,200000000000,	! Pa
MP,NUXY,3,0.3,
MP,MURX,3,10000,
MP,UVID,3,c7168412-0c96-4684-bbc2-4aaef53a4912
MP,UMID,3,59002a79-71c2-428e-906b-55d7dbee100e

/wb,mat,end                !  done sending materials
!************************* Model Summary ********************
!PEC_columbus-FreeParts,	Structural Steel,	matid,	1
!PEC_columbus-FreeParts[2],	Structural Steel,	matid,	2
!PEC_columbus-FreeParts[3],	Structural Steel,	matid,	3
!************************* End Model Summary ********************
! get the diagonal of the bounding box. Needed later for other things
*get,_xmin,node,,mnloc,x
*get,_ymin,node,,mnloc,y
*get,_zmin,node,,mnloc,z
*get,_xmax,node,,mxloc,x
*get,_ymax,node,,mxloc,y
*get,_zmax,node,,mxloc,z
_ASMDIAG=(_xmax-_xmin)*(_xmax-_xmin)+(_ymax-_ymin)*(_ymax-_ymin)+(_zmax-_zmin)*(_zmax-_zmin)
_ASMDIAG=SQRT(_ASMDIAG)
/wb,contact,start          !  starting to send contact
/com,*********** Create Contact "Frictionless - PEC_columbus-FreeParts To PEC_columbus-FreeParts[3]" ***********
/com,            Real Constant Set For Above Contact Is 5 & 4 
*set,tid,5
*set,cid,4
r,tid
r,cid
et,tid,170
et,cid,174
eblock,10,,,32
(15i9)
     4659        5        5        5        0     2342     2351     2343     2343     3203     3210     2343     3202
     4660        5        5        5        0     2343     2351     2344     2344     3210     3217     2344     3209
     4661        5        5        5        0     2344     2350     2349     2349     3216     3240     2349     3215
     4662        5        5        5        0     2344     2349     2345     2345     3215     3221     2345     3214
     4663        5        5        5        0     2339     2346     2347     2347     3186     3225     2347     3187
     4664        5        5        5        0     2346     2348     2347     2347     3226     3232     2347     3225
     4665        5        5        5        0     2348     2346     2349     2349     3226     3227     2349     3237
     4666        5        5        5        0     2349     2346     2345     2345     3227     3220     2345     3221
     4667        5        5        5        0     2344     2351     2350     2350     3217     3244     2350     3216
     4668        5        5        5        0     2340     2354     2353     2353     3194     3256     2353     3193
     4669        5        5        5        0     2354     2340     2347     2347     3194     3192     2347     3233
     4670        5        5        5        0     2342     2352     2351     2351     3204     3249     2351     3203
     4671        5        5        5        0     2342     2353     2352     2352     3205     3253     2352     3204
     4672        5        5        5        0     2341     2353     2342     2342     3198     3205     2342     3197
     4673        5        5        5        0     2340     2353     2341     2341     3193     3198     2341     3191
     4674        5        5        5        0     2347     2340     2339     2339     3192     3185     2339     3187
     4675        5        5        5        0     2362     2364     2363     2363     3305     3311     2363     3304
     4676        5        5        5        0     2358     2369     2368     2368     3284     3332     2368     3283
     4677        5        5        5        0     2362     2365     2364     2364     3306     3316     2364     3305
     4678        5        5        5        0     2355     2362     2363     2363     3264     3304     2363     3265
! ... 13 like lines cut
eblock,10,,,32
(15i9)
     4691        4        4        4        0     2342     2351     2343     2343     3203     3210     2343     3202
     4692        4        4        4        0     2343     2351     2344     2344     3210     3217     2344     3209
     4693        4        4        4        0     2344     2350     2349     2349     3216     3240     2349     3215
     4694        4        4        4        0     2344     2349     2345     2345     3215     3221     2345     3214
     4695        4        4        4        0     2339     2346     2347     2347     3186     3225     2347     3187
     4696        4        4        4        0     2346     2348     2347     2347     3226     3232     2347     3225
     4697        4        4        4        0     2348     2346     2349     2349     3226     3227     2349     3237
     4698        4        4        4        0     2349     2346     2345     2345     3227     3220     2345     3221
     4699        4        4        4        0     2344     2351     2350     2350     3217     3244     2350     3216
     4700        4        4        4        0     2340     2354     2353     2353     3194     3256     2353     3193
     4701        4        4        4        0     2354     2340     2347     2347     3194     3192     2347     3233
     4702        4        4        4        0     2342     2352     2351     2351     3204     3249     2351     3203
     4703        4        4        4        0     2342     2353     2352     2352     3205     3253     2352     3204
     4704        4        4        4        0     2341     2353     2342     2342     3198     3205     2342     3197
     4705        4        4        4        0     2340     2353     2341     2341     3193     3198     2341     3191
     4706        4        4        4        0     2347     2340     2339     2339     3192     3185     2339     3187
     4707        4        4        4        0     2362     2364     2363     2363     3305     3311     2363     3304
     4708        4        4        4        0     2358     2369     2368     2368     3284     3332     2368     3283
     4709        4        4        4        0     2362     2365     2364     2364     3306     3316     2364     3305
     4710        4        4        4        0     2355     2362     2363     2363     3264     3304     2363     3265
! ... 13 like lines cut
eblock,10,,,248
(15i9)
     4723        4        5        4        0      973      980     1010      763     2302     2309     1854     1853
     4724        4        5        4        0      966      981      755      761     2294     1837     1836     1849
     4725        4        5        4        0      770      763     1010     1009     1852     1854     2338     1875
     4726        4        5        4        0      777      770     1009     1008     1874     1875     2337     1890
     4727        4        5        4        0      784      777     1008     1007     1889     1890     2336     1905
     4728        4        5        4        0      791      784     1007     1006     1904     1905     2335     1920
     4729        4        5        4        0      798      791     1006     1005     1919     1920     2334     1935
     4730        4        5        4        0      805      798     1005     1004     1934     1935     2333     1950
     4731        4        5        4        0      812      805     1004     1003     1949     1950     2332     1965
     4732        4        5        4        0      819      812     1003     1002     1964     1965     2331     1980
     4733        4        5        4        0      826      819     1002     1001     1979     1980     2330     1995
     4734        4        5        4        0      833      826     1001     1000     1994     1995     2329     2010
     4735        4        5        4        0      840      833     1000      999     2009     2010     2328     2025
     4736        4        5        4        0      847      840      999      998     2024     2025     2327     2040
     4737        4        5        4        0      854      847      998      997     2039     2040     2326     2055
     4738        4        5        4        0      861      854      997      996     2054     2055     2325     2070
     4739        4        5        4        0      868      861      996      995     2069     2070     2324     2085
     4740        4        5        4        0      875      868      995      994     2084     2085     2323     2100
     4741        4        5        4        0      882      875      994      993     2099     2100     2322     2115
     4742        4        5        4        0      889      882      993      992     2114     2115     2321     2130
! ... 229 like lines cut
eblock,10,,,248
(15i9)
     4971        5        4        5        0      973      980     1010      763     2302     2309     1854     1853
     4972        5        4        5        0      966      981      755      761     2294     1837     1836     1849
     4973        5        4        5        0      770      763     1010     1009     1852     1854     2338     1875
     4974        5        4        5        0      777      770     1009     1008     1874     1875     2337     1890
     4975        5        4        5        0      784      777     1008     1007     1889     1890     2336     1905
     4976        5        4        5        0      791      784     1007     1006     1904     1905     2335     1920
     4977        5        4        5        0      798      791     1006     1005     1919     1920     2334     1935
     4978        5        4        5        0      805      798     1005     1004     1934     1935     2333     1950
     4979        5        4        5        0      812      805     1004     1003     1949     1950     2332     1965
     4980        5        4        5        0      819      812     1003     1002     1964     1965     2331     1980
     4981        5        4        5        0      826      819     1002     1001     1979     1980     2330     1995
     4982        5        4        5        0      833      826     1001     1000     1994     1995     2329     2010
     4983        5        4        5        0      840      833     1000      999     2009     2010     2328     2025
     4984        5        4        5        0      847      840      999      998     2024     2025     2327     2040
     4985        5        4        5        0      854      847      998      997     2039     2040     2326     2055
     4986        5        4        5        0      861      854      997      996     2054     2055     2325     2070
     4987        5        4        5        0      868      861      996      995     2069     2070     2324     2085
     4988        5        4        5        0      875      868      995      994     2084     2085     2323     2100
     4989        5        4        5        0      882      875      994      993     2099     2100     2322     2115
     4990        5        4        5        0      889      882      993      992     2114     2115     2321     2130
! ... 229 like lines cut
keyo,cid,8,2               ! auto create asymmetric contact (from Program Controlled setting)
keyo,cid,10,0              ! adjust contact stiffness each NR iteration (from Program Controlled setting)
keyo,cid,12,0              ! standard contact
keyo,cid,2,0               ! augmented Lagrange (from Program Controlled setting)
keyo,cid,4,0               ! on Gauss point (from Program Controlled setting)
keyo,cid,9,0               ! use real geometry with stepped effects
keyo,cid,7,0               ! No Prediction
rmod,tid,3,1.       ! FKN
rmod,tid,5,0.       ! ICONT
rmod,tid,6,0.       ! PINB
rmod,tid,10,0.      ! CNOF
rmod,tid,12,0.      ! FKT
rmod,tid,36,32      ! WB DSID
rmod,cid,3,1.       ! FKN
rmod,cid,5,0.       ! ICONT
rmod,cid,6,0.       ! PINB
rmod,cid,10,0.      ! CNOF
rmod,cid,12,0.      ! FKT
rmod,cid,36,32      ! WB DSID
/com,*********** Create Contact "Contact Region 2" ***********
/com,            Real Constant Set For Above Contact Is 7 & 6 
*set,tid,7
*set,cid,6
r,tid
r,cid
et,tid,170
et,cid,174
eblock,10,,,18
(15i9)
     5219        7        7        7        0       72       74       99       99      431      442       99      434
     5220        7        7        7        0       71       70       75       75      424      425       75      429
     5221        7        7        7        0       65       72       99       99      407      434       99      408
     5222        7        7        7        0       73       99       74       74      438      442       74      435
     5223        7        7        7        0       70       76       75       75      426      443       75      425
     5224        7        7        7        0       72       71       74       74      427      428       74      431
     5225        7        7        7        0       69       77       76       76      423      446       76      422
     5226        7        7        7        0       71       75       74       74      429      439       74      428
     5227        7        7        7        0       68       78       77       77      420      449       77      419
     5228        7        7        7        0       70       69       76       76      421      422       76      426
     5229        7        7        7        0       67       79       78       78      416      451       78      415
     5230        7        7        7        0       69       68       77       77      418      419       77      423
     5231        7        7        7        0       66       99       80       80      413      459       80      411
     5232        7        7        7        0       68       67       78       78      414      415       78      420
     5233        7        7        7        0       67       66       79       79      409      410       79      416
     5234        7        7        7        0       73       80       99       99      436      459       99      438
     5235        7        7        7        0       66       80       79       79      411      454       79      410
     5236        7        7        7        0       65       99       66       66      408      413       66      406
-1
eblock,10,,,18
(15i9)
     5237        6        6        6        0       72       74       99       99      431      442       99      434
     5238        6        6        6        0       71       70       75       75      424      425       75      429
     5239        6        6        6        0       65       72       99       99      407      434       99      408
     5240        6        6        6        0       73       99       74       74      438      442       74      435
     5241        6        6        6        0       70       76       75       75      426      443       75      425
     5242        6        6        6        0       72       71       74       74      427      428       74      431
     5243        6        6        6        0       69       77       76       76      423      446       76      422
     5244        6        6        6        0       71       75       74       74      429      439       74      428
     5245        6        6        6        0       68       78       77       77      420      449       77      419
     5246        6        6        6        0       70       69       76       76      421      422       76      426
     5247        6        6        6        0       67       79       78       78      416      451       78      415
     5248        6        6        6        0       69       68       77       77      418      419       77      423
     5249        6        6        6        0       66       99       80       80      413      459       80      411
     5250        6        6        6        0       68       67       78       78      414      415       78      420
     5251        6        6        6        0       67       66       79       79      409      410       79      416
     5252        6        6        6        0       73       80       99       99      436      459       99      438
     5253        6        6        6        0       66       80       79       79      411      454       79      410
     5254        6        6        6        0       65       99       66       66      408      413       66      406
-1
eblock,10,,,24
(15i9)
     5255        6        7        6        0      861      854      997      996     2054     2055     2325     2070
     5256        6        7        6        0      868      861      996      995     2069     2070     2324     2085
     5257        6        7        6        0      875      868      995      994     2084     2085     2323     2100
     5258        6        7        6        0      861      862      855      854     2068     2057     2053     2054
     5259        6        7        6        0      868      869      862      861     2083     2072     2068     2069
     5260        6        7        6        0      875      876      869      868     2098     2087     2083     2084
     5261        6        7        6        0      862      863      856      855     2071     2059     2056     2057
     5262        6        7        6        0      869      870      863      862     2086     2074     2071     2072
     5263        6        7        6        0      876      877      870      869     2101     2089     2086     2087
     5264        6        7        6        0      863      864      857      856     2073     2061     2058     2059
     5265        6        7        6        0      870      871      864      863     2088     2076     2073     2074
     5266        6        7        6        0      877      878      871      870     2103     2091     2088     2089
     5267        6        7        6        0      864      865      858      857     2075     2063     2060     2061
     5268        6        7        6        0      871      872      865      864     2090     2078     2075     2076
     5269        6        7        6        0      878      879      872      871     2105     2093     2090     2091
     5270        6        7        6        0      865      866      859      858     2077     2065     2062     2063
     5271        6        7        6        0      872      873      866      865     2092     2080     2077     2078
     5272        6        7        6        0      879      880      873      872     2107     2095     2092     2093
     5273        6        7        6        0      866      867      860      859     2079     2066     2064     2065
     5274        6        7        6        0      873      874      867      866     2094     2081     2079     2080
! ... 5 like lines cut
eblock,10,,,24
(15i9)
     5279        7        6        7        0      861      854      997      996     2054     2055     2325     2070
     5280        7        6        7        0      868      861      996      995     2069     2070     2324     2085
     5281        7        6        7        0      875      868      995      994     2084     2085     2323     2100
     5282        7        6        7        0      861      862      855      854     2068     2057     2053     2054
     5283        7        6        7        0      868      869      862      861     2083     2072     2068     2069
     5284        7        6        7        0      875      876      869      868     2098     2087     2083     2084
     5285        7        6        7        0      862      863      856      855     2071     2059     2056     2057
     5286        7        6        7        0      869      870      863      862     2086     2074     2071     2072
     5287        7        6        7        0      876      877      870      869     2101     2089     2086     2087
     5288        7        6        7        0      863      864      857      856     2073     2061     2058     2059
     5289        7        6        7        0      870      871      864      863     2088     2076     2073     2074
     5290        7        6        7        0      877      878      871      870     2103     2091     2088     2089
     5291        7        6        7        0      864      865      858      857     2075     2063     2060     2061
     5292        7        6        7        0      871      872      865      864     2090     2078     2075     2076
     5293        7        6        7        0      878      879      872      871     2105     2093     2090     2091
     5294        7        6        7        0      865      866      859      858     2077     2065     2062     2063
     5295        7        6        7        0      872      873      866      865     2092     2080     2077     2078
     5296        7        6        7        0      879      880      873      872     2107     2095     2092     2093
     5297        7        6        7        0      866      867      860      859     2079     2066     2064     2065
     5298        7        6        7        0      873      874      867      866     2094     2081     2079     2080
! ... 5 like lines cut
keyo,cid,8,2               ! auto create asymmetric contact (from Program Controlled setting)
keyo,cid,10,0              ! adjust contact stiffness each NR iteration (from Program Controlled setting)
keyo,cid,12,5              ! bonded always
keyo,cid,18,1              ! small sliding turned on by application
keyo,cid,2,0               ! augmented Lagrange (from Program Controlled setting)
keyo,cid,4,0               ! on Gauss point (from Program Controlled setting)
keyo,cid,9,1               ! ignore initial gaps/penetration
keyo,cid,7,0               ! No Prediction
rmod,tid,3,1.       ! FKN
rmod,tid,5,0.       ! ICONT
rmod,tid,6,0.       ! PINB
rmod,tid,10,0.      ! CNOF
rmod,tid,12,0.      ! FKT
rmod,tid,36,35      ! WB DSID
rmod,cid,3,1.       ! FKN
rmod,cid,5,0.       ! ICONT
rmod,cid,6,0.       ! PINB
rmod,cid,10,0.      ! CNOF
rmod,cid,12,0.      ! FKT
rmod,cid,36,35      ! WB DSID
nsel,all
esel,all
/wb,contact,end            !  done creating contacts
/golist
/wb,load,start             !  starting to send loads
/com,******* Constant Zero Displacement X *******
CMBLOCK,_DISPZEROUX,NODE,      825
(8i10)
      2475      2476      2477      2478      2479      2480      2481      2482
      2483      2493      2494      2495      2496      2497      2498      2499
      2500      2501      2502      2503      2504      2505      2506      2507
      2508      2509      2527      2528      2529      2530      2531      2532
      2533      2534      2543      2544      2545      2546      2547      2548
      2549      2550      2551      2552      2553      2554      2555      2556
      2557      2558      2675      2676      2677      2678      2679      2680
      2681      2682      2691      2692      2693      2694      2695      2696
      2697      2698      2699      2700      2701      2702      2703      2704
      2705      2706      2707      2725      2726      2727      2728      2729
      2730      2731      2732      2741      2742      2743      2744      2745
      2746      2747      2748      2749      2750      2751      2752      2753
      2754      2755      2756      2757      3050      3051      3052      3053
      3054      3055      3056      3057      3058      3059      3060      3061
      3062      3063      3064      3065      3066      3067      3068      3069
      3070      3071      3072      3073      3074      3075      3076      3077
      3078      3079      3080      3081      3082      3083      3084      3085
      3086      3087      3088      3089      3090      3091      3092      3093
      3094      3095      3096      3097      3098      3099      3100      3101
      3102      3103      3104      3105      3106      3107      3108      3109
! ... 84 like lines cut
cmsel,s,_DISPZEROUX
d,all,ux,0
nsel,all
/com,******* Constant Zero Displacement Y *******
CMBLOCK,_DISPZEROUY,NODE,      825
(8i10)
      2475      2476      2477      2478      2479      2480      2481      2482
      2483      2493      2494      2495      2496      2497      2498      2499
      2500      2501      2502      2503      2504      2505      2506      2507
      2508      2509      2527      2528      2529      2530      2531      2532
      2533      2534      2543      2544      2545      2546      2547      2548
      2549      2550      2551      2552      2553      2554      2555      2556
      2557      2558      2675      2676      2677      2678      2679      2680
      2681      2682      2691      2692      2693      2694      2695      2696
      2697      2698      2699      2700      2701      2702      2703      2704
      2705      2706      2707      2725      2726      2727      2728      2729
      2730      2731      2732      2741      2742      2743      2744      2745
      2746      2747      2748      2749      2750      2751      2752      2753
      2754      2755      2756      2757      3050      3051      3052      3053
      3054      3055      3056      3057      3058      3059      3060      3061
      3062      3063      3064      3065      3066      3067      3068      3069
      3070      3071      3072      3073      3074      3075      3076      3077
      3078      3079      3080      3081      3082      3083      3084      3085
      3086      3087      3088      3089      3090      3091      3092      3093
      3094      3095      3096      3097      3098      3099      3100      3101
      3102      3103      3104      3105      3106      3107      3108      3109
! ... 84 like lines cut
cmsel,s,_DISPZEROUY
d,all,uy,0
nsel,all
/com,******* Constant Zero Displacement Z *******
CMBLOCK,_DISPZEROUZ,NODE,      825
(8i10)
      2475      2476      2477      2478      2479      2480      2481      2482
      2483      2493      2494      2495      2496      2497      2498      2499
      2500      2501      2502      2503      2504      2505      2506      2507
      2508      2509      2527      2528      2529      2530      2531      2532
      2533      2534      2543      2544      2545      2546      2547      2548
      2549      2550      2551      2552      2553      2554      2555      2556
      2557      2558      2675      2676      2677      2678      2679      2680
      2681      2682      2691      2692      2693      2694      2695      2696
      2697      2698      2699      2700      2701      2702      2703      2704
      2705      2706      2707      2725      2726      2727      2728      2729
      2730      2731      2732      2741      2742      2743      2744      2745
      2746      2747      2748      2749      2750      2751      2752      2753
      2754      2755      2756      2757      3050      3051      3052      3053
      3054      3055      3056      3057      3058      3059      3060      3061
      3062      3063      3064      3065      3066      3067      3068      3069
      3070      3071      3072      3073      3074      3075      3076      3077
      3078      3079      3080      3081      3082      3083      3084      3085
      3086      3087      3088      3089      3090      3091      3092      3093
      3094      3095      3096      3097      3098      3099      3100      3101
      3102      3103      3104      3105      3106      3107      3108      3109
! ... 84 like lines cut
cmsel,s,_DISPZEROUZ
d,all,uz,0
nsel,all
/com,*********** Create Remote Point "Internal Remote Point 2" ***********
! -------- Remote Point Used by "Revolute - Ground To PEC_columbus-FreeParts[3]" --------
*set,tid,9
*set,cid,8
et,cid,174
et,tid,170
keyo,tid,2,1               ! Don't fix the pilot node
keyo,tid,4,0               ! Activate all DOF's due to large deformation
keyo,cid,12,5              ! Bonded Contact 
keyo,cid,4,2               ! Rigid CERIG style load
keyo,cid,2,2               ! MPC style contact
eblock,10,,,248
(15i9)
     5303        8        8        8        0      973      980     1010      763     2302     2309     1854     1853
     5304        8        8        8        0      966      981      755      761     2294     1837     1836     1849
     5305        8        8        8        0      770      763     1010     1009     1852     1854     2338     1875
     5306        8        8        8        0      777      770     1009     1008     1874     1875     2337     1890
     5307        8        8        8        0      784      777     1008     1007     1889     1890     2336     1905
     5308        8        8        8        0      791      784     1007     1006     1904     1905     2335     1920
     5309        8        8        8        0      798      791     1006     1005     1919     1920     2334     1935
     5310        8        8        8        0      805      798     1005     1004     1934     1935     2333     1950
     5311        8        8        8        0      812      805     1004     1003     1949     1950     2332     1965
     5312        8        8        8        0      819      812     1003     1002     1964     1965     2331     1980
     5313        8        8        8        0      826      819     1002     1001     1979     1980     2330     1995
     5314        8        8        8        0      833      826     1001     1000     1994     1995     2329     2010
     5315        8        8        8        0      840      833     1000      999     2009     2010     2328     2025
     5316        8        8        8        0      847      840      999      998     2024     2025     2327     2040
     5317        8        8        8        0      854      847      998      997     2039     2040     2326     2055
     5318        8        8        8        0      861      854      997      996     2054     2055     2325     2070
     5319        8        8        8        0      868      861      996      995     2069     2070     2324     2085
     5320        8        8        8        0      875      868      995      994     2084     2085     2323     2100
     5321        8        8        8        0      882      875      994      993     2099     2100     2322     2115
     5322        8        8        8        0      889      882      993      992     2114     2115     2321     2130
! ... 229 like lines cut
*set,_npilot,6843
_npilot45=_npilot
type,tid
mat ,cid
real,cid
tshape,pilo
en,5551,_npilot
tshape
csys,12
nrot,6843
csys,0
/com,*********** Create Joint "Revolute - Ground To PEC_columbus-FreeParts[3]" ***********
/com,            Real Constant Set For Above Joint Is 10
! Joint Element Type Declaration and Definition using MPC184
*set,_jid,10
et,_jid,184
keyo,_jid,1,6           ! Revolute Joint
keyo,_jid,4,1           ! Z Axis is revolute axis
sectype,_jid, joint, revo, _wbjoint
secjoint,,12,12
mat,_jid
real,_jid
type,_jid
secnum,_jid
en,4656,,6843        ! body to ground joint
/com,*********** Define Force Using Surface Effect Elements ***********
local,13,0,0.,0.,0.,0.,0.,0.
csys,0
et,11,154
eblock,10,,,16
(15i9)
     5552       11       11       11       13       30       42       31       31      251      257       31      250
     5553       11       11       11       13       38       45       39       39      281      284       39      280
     5554       11       11       11       13       32       40       33       33      260      266       33      259
     5555       11       11       11       13       33       39       45       45      265      284       45      267
     5556       11       11       11       13       29       44       43       43      247      295       43      246
     5557       11       11       11       13       33       40       39       39      266      283       39      265
     5558       11       11       11       13       30       43       42       42      252      292       42      251
     5559       11       11       11       13       32       41       40       40      261      287       40      260
     5560       11       11       11       13       31       42       41       41      257      290       41      256
     5561       11       11       11       13       31       41       32       32      256      261       32      255
     5562       11       11       11       13       29       43       30       30      246      252       30      245
     5563       11       11       11       13       35       44       37       37      274      278       37      273
     5564       11       11       11       13       27       33       45       45      238      267       45      240
     5565       11       11       11       13       28       37       44       44      242      278       44      243
     5566       11       11       11       13       28       44       29       29      243      247       29      241
     5567       11       11       11       13       25       37       28       28      233      242       28      232
-1
esel,s,type,,11
keyop,11,2,1                ! Apply load in local coordinate system
keyop,11,7,1                ! Use original area so load is constant in large deformation
esel,all
/com,*********** Create Joint Drivers **********
/gst,on,on
fini
*get,_numnode,node,0,count
*get,_numelem,elem,0,count
*get, _MAXELEMNUM, elem, 0, NUM, MAX
*get, _MAXNODENUM, node, 0, NUM, MAX
*get, _MAXELEMTYPE, etyp, 0, NUM, MAX
*get, _MAXREALCONST, rcon, 0, NUM, MAX
/go
/wb,load,end               !  done creating loads
/com,--- Number of total nodes = %_numnode%
/com,--- Number of contact elements = 908
/com,--- Number of spring elements = 0
/com,--- Number of bearing elements = 0
/com,--- Number of solid elements = 2497
/com,--- Number of condensed parts = 0
/com,--- Number of total elements = %_numelem%
*get,_wallbsol,active,,time,wall
/com,****************************************************************************
/com,*************************    SOLUTION       ********************************
/com,****************************************************************************
/solu
antype,4                   ! transient analysis
nlgeom,on                  ! Turn on Large Deformation Effects
kbc,1                      ! stepped BC's
_thickRatio=0.333   ! Ratio of thick parts in the model
eqsl,sparse,,,,,1
cntr,print,1               ! print out contact info and also make no initial contact an error
dmpoption,emat,no             ! Don't combine emat file for DANSYS
dmpoption,esav,no             ! Don't combine esav file for DANSYS
trnopt,full,,,,,hht        ! HHT time integration method
tintp, losp			! Choose transient integration settings for low speed application
nldiag,cont,iter           ! print out contact info each equilibrium iteration
rescontrol,define,last,last,,dele	   ! Program Controlled
/com,****************************************************
/com,******************* SOLVE FOR LS 1 OF 1 ****************
esel,s,type,,11
nsle
sfe,all,1,pres,1,0.
sfe,all,2,pres,1,-4548631.49359305
sfe,all,3,pres,1,0.
nsel,all
esel,all
/nopr
/gopr
esel,s,type,,10
dj,all,omgz,1.0471975511966
esel,all
autots,on                   ! User turned on automatic time stepping
deltim,1,0.1,1,OFF
time,2.
timint,on                  ! Turn on time integration effects
outres,erase
outres,all,none
outres,nsol,all,
outres,rsol,all
outres,eangl,all
outres,etmp,all
outres,veng,all
outres,nload,all,
outres,strs,all,
outres,epel,all,
outres,eppl,all,
outres,cont,all,
outres,v,all,
outres,a,all,
outres,misc,all,
! *********** WB SOLVE COMMAND ***********
! check interactive state
*get,ANSINTER_,active,,int
*if,ANSINTER_,ne,0,then
/eof
*endif
solve
/com *************** Write FE CONNECTORS ********* 
CEWRITE,file,ce,,INTE
/com,****************************************************
/com,*************** FINISHED SOLVE FOR LS 1 *************
*get,_wallasol,active,,time,wall
/nopr
*get,_numnode,node,0,count
*get,_numelem,elem,0,count
*get, _MAXELEMNUM, elem, 0, NUM, MAX
*get, _MAXNODENUM, node, 0, NUM, MAX,,,INTERNAL
*get, _MAXELEMTYPE, etyp, 0, NUM, MAX
*get, _MAXREALCONST, rcon, 0, NUM, MAX
*get,_NSOLTHREADS,active,0,ntfs
*get,_NSOLPROCESSES,active,0,npfs
/gopr
/post1
xmlo,ENCODING,ISO-8859-1
xmlo,parm
/xml,parm,xml
fini
/gopr
*get,_walldone,active,,time,wall
_preptime=(_wallbsol-_wallstrt)*3600
_solvtime=(_wallasol-_wallbsol)*3600
_posttime=(_walldone-_wallasol)*3600
_totaltim=(_walldone-_wallstrt)*3600
*get,_dlbratio,active,0,solu,dlbr
*get,_combtime,active,0,solu,comb
*get,_ssmode,active,0,solu,ssmm
*get,_ndofs,active,0,solu,ndof
*get,_sol_end_time,active,0,set,time
*if,_sol_end_time,eq,2.000000,then
/fclean				!clean distributed files
*endif
/com,--- Total number of nodes = %_numnode%
/com,--- Total number of elements = %_numelem%
/com,--- Element load balance ratio = %_dlbratio%
/com,--- Time to combine distributed files = %_combtime%
/com,--- Sparse memory mode = %_ssmode%
/com,--- Number of DOF = %_ndofs%
/wb,file,end               ! done with WB generated input
