*Heading
** Job name: ThreeD Model name: Model-1
** Generated by: Abaqus/CAE Learning Edition 2023
*Preprint, echo=NO, model=NO, history=NO, contact=NO
**
** PARTS
**
*Part, name=Part-1
*Node
      1,         -50.,         -10.,           4.
      2,         -50.,          -5.,           4.
      3,         -50.,           0.,           4.
      4,         -50.,           5.,           4.
      5,         -50.,          10.,           4.
      6,         -50.,         -10.,           0.
      7,         -50.,          -5.,           0.
      8,         -50.,           0.,           0.
      9,         -50.,           5.,           0.
     10,         -50.,          10.,           0.
     11,         -45.,         -10.,           4.
     12,         -45.,          -5.,           4.
     13,         -45.,           0.,           4.
     14,         -45.,           5.,           4.
     15,         -45.,          10.,           4.
     16,         -45.,         -10.,           0.
     17,         -45.,          -5.,           0.
     18,         -45.,           0.,           0.
     19,         -45.,           5.,           0.
     20,         -45.,          10.,           0.
** ... 190 like lines cut
*Element, type=C3D8
 1,  11,  12,  17,  16,   1,   2,   7,   6
 2,  12,  13,  18,  17,   2,   3,   8,   7
 3,  13,  14,  19,  18,   3,   4,   9,   8
 4,  14,  15,  20,  19,   4,   5,  10,   9
 5,  21,  22,  27,  26,  11,  12,  17,  16
 6,  22,  23,  28,  27,  12,  13,  18,  17
 7,  23,  24,  29,  28,  13,  14,  19,  18
 8,  24,  25,  30,  29,  14,  15,  20,  19
 9,  31,  32,  37,  36,  21,  22,  27,  26
10,  32,  33,  38,  37,  22,  23,  28,  27
11,  33,  34,  39,  38,  23,  24,  29,  28
12,  34,  35,  40,  39,  24,  25,  30,  29
13,  41,  42,  47,  46,  31,  32,  37,  36
14,  42,  43,  48,  47,  32,  33,  38,  37
15,  43,  44,  49,  48,  33,  34,  39,  38
16,  44,  45,  50,  49,  34,  35,  40,  39
17,  51,  52,  57,  56,  41,  42,  47,  46
18,  52,  53,  58,  57,  42,  43,  48,  47
19,  53,  54,  59,  58,  43,  44,  49,  48
20,  54,  55,  60,  59,  44,  45,  50,  49
** ... 60 like lines cut
*Nset, nset=_PickedSet2, internal, generate
   1,  210,    1
*Elset, elset=_PickedSet2, internal, generate
  1,  80,   1
*Nset, nset=Load, generate
 201,  210,    1
*Nset, nset=BC, generate
  1,  10,   1
** Section: Section-1
*Solid Section, elset=_PickedSet2, material=Steel
,
*End Part
**  
**
** ASSEMBLY
**
*Assembly, name=Assembly
**  
*Instance, name=Part-1-1, part=Part-1
*End Instance
**  
*End Assembly
** 
** MATERIALS
** 
*Material, name=Steel
*Density
 7.85e-09,
*Elastic
210000., 0.3
** ----------------------------------------------------------------
** 
** STEP: Step-1
** 
*Step, name=Step-1, nlgeom=NO
*Static
1., 1., 1e-05, 1.
** 
** BOUNDARY CONDITIONS
** 
** Name: BC-1 Type: Symmetry/Antisymmetry/Encastre
*Boundary
Part-1-1.BC, ENCASTRE
** 
** LOADS
** 
** Name: Load-1   Type: Concentrated force
*Cload
Part-1-1.Load, 3, -20.
** 
** OUTPUT REQUESTS
** 
*Restart, write, frequency=0
** 
** FIELD OUTPUT: F-Output-1
** 
*Output, field, variable=PRESELECT
** 
** HISTORY OUTPUT: H-Output-1
** 
*Output, history, variable=PRESELECT
*End Step
