*Heading
** Job name: Job-1 Model name: 2DAnalysis
** Generated by: Abaqus/CAE Learning Edition 2023
*Preprint, echo=NO, model=NO, history=NO, contact=NO
**
** PARTS
**
*Part, name=Part-1
*Node
      1,          50.,          10.,           0.
      2,          45.,          10.,           0.
      3,          40.,          10.,           0.
      4,          35.,          10.,           0.
      5,          30.,          10.,           0.
      6,          25.,          10.,           0.
      7,          20.,          10.,           0.
      8,          15.,          10.,           0.
      9,          10.,          10.,           0.
     10,           5.,          10.,           0.
     11,           0.,          10.,           0.
     12,          -5.,          10.,           0.
     13,         -10.,          10.,           0.
     14,         -15.,          10.,           0.
     15,         -20.,          10.,           0.
     16,         -25.,          10.,           0.
     17,         -30.,          10.,           0.
     18,         -35.,          10.,           0.
     19,         -40.,          10.,           0.
     20,         -45.,          10.,           0.
** ... 85 like lines cut
*Element, type=S4
 1,   1,   2,  23,  22
 2,   2,   3,  24,  23
 3,   3,   4,  25,  24
 4,   4,   5,  26,  25
 5,   5,   6,  27,  26
 6,   6,   7,  28,  27
 7,   7,   8,  29,  28
 8,   8,   9,  30,  29
 9,   9,  10,  31,  30
10,  10,  11,  32,  31
11,  11,  12,  33,  32
12,  12,  13,  34,  33
13,  13,  14,  35,  34
14,  14,  15,  36,  35
15,  15,  16,  37,  36
16,  16,  17,  38,  37
17,  17,  18,  39,  38
18,  18,  19,  40,  39
19,  19,  20,  41,  40
20,  20,  21,  42,  41
** ... 60 like lines cut
*Nset, nset=_PickedSet2, internal, generate
   1,  105,    1
*Elset, elset=_PickedSet2, internal, generate
  1,  80,   1
*Nset, nset=BC_Set, generate
  21,  105,   21
*Nset, nset=Load, generate
  1,  85,  21
** Section: Plane_4
*Shell Section, elset=_PickedSet2, material=Steel
4., 5
*End Part
**  
**
** ASSEMBLY
**
*Assembly, name=Assembly
**  
*Instance, name=Part-1-1, part=Part-1
*End Instance
**  
*End Assembly
** 
** MATERIALS
** 
*Material, name=Steel
*Density
 7.85e-09,
*Elastic
210000., 0.3
** ----------------------------------------------------------------
** 
** STEP: twoDAnalyse
** 
*Step, name=twoDAnalyse, nlgeom=NO
*Static
1., 1., 1e-05, 1.
** 
** BOUNDARY CONDITIONS
** 
** Name: BC-1 Type: Symmetry/Antisymmetry/Encastre
*Boundary
Part-1-1.BC_Set, ENCASTRE
** 
** LOADS
** 
** Name: Load-1   Type: Concentrated force
*Cload
Part-1-1.Load, 3, -40.
** 
** OUTPUT REQUESTS
** 
*Restart, write, frequency=0
** 
** FIELD OUTPUT: F-Output-1
** 
*Output, field, variable=PRESELECT
** 
** HISTORY OUTPUT: H-Output-1
** 
*Output, history, variable=PRESELECT
*End Step
