*Heading
** Job name: DoIt Model name: Model-1
** Generated by: Abaqus/CAE Learning Edition 2023
*Preprint, echo=NO, model=NO, history=NO, contact=NO
**
** PARTS
**
*Part, name=U_Shaped_Bracket
*Node
      1,          90.,          60.,          7.5
      2,         67.5,          60.,          30.
      3,         67.5,         -60.,          30.
      4,          90.,         -60.,          7.5
      5,         67.5,          60.,          70.
      6,         67.5,         -60.,          70.
      7,          45.,          60.,         92.5
      8,          45.,         -60.,         92.5
      9,         -45.,          60.,         92.5
     10,         -45.,         -60.,         92.5
     11,        -67.5,          60.,          70.
     12,        -67.5,         -60.,          70.
     13,        -67.5,          60.,          30.
     14,        -67.5,         -60.,          30.
     15,         -90.,          60.,          7.5
     16,         -90.,         -60.,          7.5
     17,         140.,         -60.,          7.5
     18,        107.5,           0.,          7.5
     19,         140.,          60.,          7.5
     20,       -122.5,           0.,          7.5
** ... 693 like lines cut
*Element, type=S4R
 1,   1,  23, 245,  54
 2,  23,  24, 246, 245
 3,  24,  25, 247, 246
 4,  25,   2,  26, 247
 5,  54, 245, 248,  53
 6, 245, 246, 249, 248
 7, 246, 247, 250, 249
 8, 247,  26,  27, 250
 9,  53, 248, 251,  52
10, 248, 249, 252, 251
11, 249, 250, 253, 252
12, 250,  27,  28, 253
13,  52, 251, 254,  51
14, 251, 252, 255, 254
15, 252, 253, 256, 255
16, 253,  28,  29, 256
17,  51, 254, 257,  50
18, 254, 255, 258, 257
19, 255, 256, 259, 258
20, 256,  29,  30, 259
** ... 623 like lines cut
*Element, type=S3
562, 616, 621, 620
645, 694, 699, 698
*Nset, nset=_PickedSet4, internal, generate
   1,  713,    1
*Elset, elset=_PickedSet4, internal, generate
   1,  645,    1
** Section: Brac15
*Shell Section, elset=_PickedSet4, material=Steel
15., 5
*End Part
**  
**
** ASSEMBLY
**
*Assembly, name=Assembly
**  
*Instance, name=U_Shaped_Bracket-1, part=U_Shaped_Bracket
*End Instance
**  
*Node
      1,         115., 7.56466999e-15,          7.5
*Node
      2,        -115., 6.64618473e-15,          7.5
*Nset, nset=BC
 1, 2
*Nset, nset=CS111, instance=U_Shaped_Bracket-1
  18, 181, 182, 183, 184, 185, 186, 187, 188, 189, 190, 601, 604, 605, 610, 623
 624, 631, 633, 634, 637, 638
*Nset, nset=CS112, instance=U_Shaped_Bracket-1
  20, 214, 215, 216, 217, 218, 219, 220, 221, 662, 663, 666, 667, 674, 680, 683
 684, 701
*Nset, nset=_PickedSet20, internal
 2,
*Nset, nset=_PickedSet21, internal
 1,
*Nset, nset=_PickedSet22, internal
 1, 2
*Elset, elset=_PresSurf_SNEG, internal, instance=U_Shaped_Bracket-1, generate
 169,  308,    1
*Surface, type=ELEMENT, name=PresSurf
_PresSurf_SNEG, SNEG
*Surface, type=NODE, name=CS112_CNS_, internal
CS112, 1.
*Surface, type=NODE, name=CS111_CNS_, internal
CS111, 1.
** Constraint: Constraint-1
*Coupling, constraint name=Constraint-1, ref node=_PickedSet20, surface=CS112_CNS_
*Kinematic
** Constraint: Constraint-2
*Coupling, constraint name=Constraint-2, ref node=_PickedSet21, surface=CS111_CNS_
*Kinematic
*End Assembly
** 
** MATERIALS
** 
*Material, name=Steel
*Density
 7.85e-09,
*Elastic
210000., 0.3
** ----------------------------------------------------------------
** 
** STEP: Step-1
** 
*Step, name=Step-1, nlgeom=NO
*Static
1., 1., 1e-05, 1.
** 
** BOUNDARY CONDITIONS
** 
** Name: BC-1 Type: Symmetry/Antisymmetry/Encastre
*Boundary
_PickedSet22, ENCASTRE
** 
** LOADS
** 
** Name: Press   Type: Pressure
*Dsload
PresSurf, P, 1.
** 
** OUTPUT REQUESTS
** 
*Restart, write, frequency=0
** 
** FIELD OUTPUT: F-Output-1
** 
*Output, field, variable=PRESELECT
** 
** HISTORY OUTPUT: H-Output-1
** 
*Output, history, variable=PRESELECT
*End Step
